14
-86.61245
C    -0.115000000     0.317000000    -1.426000000
H    -0.215000000     0.596000000    -2.472000000
C     0.651000000     1.039000000    -0.503000000
H     1.376000000     1.764000000    -0.865000000
C     0.643000000     0.617000000     0.827000000
H     1.191000000     1.129000000     1.645000000
C    -0.129000000    -0.457000000     1.246000000
H    -0.142000000    -0.817000000     2.271000000
C    -0.771000000    -1.248000000     0.277000000
H    -1.299000000    -2.148000000     0.581000000
C    -0.837000000    -0.776000000    -1.060000000
C    -1.494000000    -1.591000000    -2.117000000
O    -1.565000000    -2.815000000    -2.062000000
O    -1.771000000    -1.077000000    -3.199000000
