14
-91.03058
C     0.032000000    -0.446000000    -1.421000000
H     0.073000000    -0.641000000    -2.489000000
C     1.000000000     0.346000000    -0.805000000
H     1.866000000     0.712000000    -1.350000000
C     0.867000000     0.741000000     0.510000000
H     1.609000000     1.284000000     1.087000000
C    -0.284000000     0.363000000     1.228000000
H    -0.436000000     0.563000000     2.286000000
C    -1.191000000    -0.499000000     0.595000000
H    -2.104000000    -0.797000000     1.105000000
C    -1.040000000    -0.914000000    -0.725000000
C    -2.083000000    -1.854000000    -1.320000000
O    -3.131000000    -2.124000000    -0.704000000
O    -1.816000000    -2.500000000    -2.319000000
