14
-85.02446
C     0.514000000     0.371000000    -1.334000000
H     0.879000000     0.847000000    -2.240000000
C     0.812000000     1.035000000    -0.132000000
H     1.342000000     1.973000000     0.013000000
C     0.263000000     0.551000000     1.050000000
H     0.467000000     1.034000000     2.001000000
C    -0.447000000    -0.641000000     1.028000000
H    -0.894000000    -0.981000000     1.959000000
C    -0.700000000    -1.305000000    -0.175000000
H    -1.386000000    -2.142000000    -0.073000000
C    -0.231000000    -0.818000000    -1.370000000
C    -0.724000000    -1.334000000    -2.675000000
O    -1.667000000    -2.078000000    -2.626000000
O    -0.107000000    -1.194000000    -3.708000000
