14
-77.67756
C     0.923000000     1.191000000    -0.154000000
H     1.639000000     2.005000000    -0.071000000
C     0.657000000     0.452000000     0.965000000
H     1.233000000     0.626000000     1.871000000
C    -0.238000000    -0.592000000     1.068000000
H    -0.399000000    -1.072000000     1.965000000
C    -0.853000000    -1.027000000    -0.112000000
H    -1.511000000    -1.887000000    -0.199000000
C    -0.606000000    -0.197000000    -1.270000000
H    -1.188000000    -0.458000000    -2.150000000
C     0.297000000     0.826000000    -1.318000000
C     0.410000000     1.561000000    -2.602000000
O    -0.039000000     1.187000000    -3.623000000
O     1.055000000     2.582000000    -2.576000000
