14
-94.39660
C     0.959000000     0.336000000    -1.047000000
H     1.761000000     0.427000000    -1.774000000
C     1.232000000     0.049000000     0.280000000
H     2.286000000     0.012000000     0.546000000
C     0.239000000    -0.138000000     1.233000000
H     0.491000000    -0.272000000     2.304000000
C    -1.107000000    -0.108000000     0.823000000
H    -1.891000000    -0.341000000     1.539000000
C    -1.346000000     0.090000000    -0.563000000
H    -2.359000000     0.096000000    -0.958000000
C    -0.358000000     0.437000000    -1.487000000
C    -0.629000000     0.643000000    -2.984000000
O    -1.825000000     0.614000000    -3.354000000
O     0.298000000     0.759000000    -3.789000000
