14
-74.28031
C     1.106000000     0.504000000    -0.740000000
H     1.995000000     0.846000000    -1.264000000
C     0.883000000     0.867000000     0.605000000
H     1.578000000     1.386000000     1.261000000
C    -0.227000000     0.285000000     1.198000000
H    -0.446000000     0.389000000     2.214000000
C    -1.052000000    -0.497000000     0.471000000
H    -1.838000000    -1.000000000     1.028000000
C    -0.916000000    -0.717000000    -0.892000000
H    -1.629000000    -1.318000000    -1.450000000
C     0.223000000    -0.172000000    -1.579000000
C     0.466000000    -0.534000000    -3.019000000
O    -0.201000000    -1.318000000    -3.614000000
O     1.251000000     0.061000000    -3.726000000
