14
-83.59556
C     0.438000000     1.131000000    -0.869000000
H     0.517000000     2.067000000    -1.416000000
C     0.050000000     1.225000000     0.491000000
H    -0.175000000     2.181000000     0.956000000
C    -0.171000000     0.049000000     1.221000000
H    -0.539000000     0.150000000     2.209000000
C    -0.079000000    -1.239000000     0.678000000
H    -0.303000000    -2.164000000     1.203000000
C     0.223000000    -1.271000000    -0.684000000
H     0.089000000    -2.280000000    -1.063000000
C     0.537000000    -0.152000000    -1.478000000
C     0.786000000    -0.212000000    -2.968000000
O     0.253000000    -1.046000000    -3.701000000
O     1.618000000     0.494000000    -3.470000000
