14
-89.31758
C     0.960000000     0.330000000    -1.091000000
H     1.738000000     0.583000000    -1.807000000
C     1.091000000     0.760000000     0.251000000
H     1.828000000     1.512000000     0.521000000
C     0.073000000     0.400000000     1.153000000
H     0.086000000     0.654000000     2.219000000
C    -0.965000000    -0.450000000     0.774000000
H    -1.716000000    -0.768000000     1.492000000
C    -1.080000000    -0.807000000    -0.527000000
H    -1.996000000    -1.302000000    -0.839000000
C    -0.161000000    -0.376000000    -1.539000000
C    -0.263000000    -0.957000000    -2.927000000
O    -1.033000000    -1.877000000    -3.184000000
O     0.435000000    -0.496000000    -3.862000000
