14
-83.43811
C     0.282000000     1.124000000    -1.001000000
H     0.529000000     1.945000000    -1.669000000
C     0.216000000     1.274000000     0.368000000
H     0.382000000     2.223000000     0.873000000
C     0.020000000     0.147000000     1.188000000
H     0.015000000     0.274000000     2.277000000
C    -0.337000000    -1.079000000     0.673000000
H    -0.584000000    -1.907000000     1.332000000
C    -0.274000000    -1.168000000    -0.760000000
H    -0.497000000    -2.164000000    -1.135000000
C     0.034000000    -0.106000000    -1.564000000
C     0.129000000    -0.318000000    -3.054000000
O     0.069000000    -1.454000000    -3.379000000
O     0.073000000     0.598000000    -3.805000000
