14
-90.11968
C     1.263000000     0.641000000    -0.489000000
H     2.226000000     0.892000000    -0.928000000
C     1.097000000    -0.603000000     0.103000000
H     1.920000000    -1.255000000     0.381000000
C    -0.101000000    -1.085000000     0.545000000
H    -0.160000000    -2.128000000     0.956000000
C    -1.223000000    -0.274000000     0.422000000
H    -2.183000000    -0.548000000     0.853000000
C    -1.139000000     0.924000000    -0.292000000
H    -2.004000000     1.566000000    -0.440000000
C     0.091000000     1.430000000    -0.751000000
C     0.133000000     2.747000000    -1.490000000
O    -0.816000000     3.472000000    -1.373000000
O     1.197000000     3.084000000    -2.072000000
