14
-90.40707
C    -1.246000000     0.584000000    -0.519000000
H    -2.101000000     1.180000000    -0.828000000
C    -0.592000000     0.989000000     0.679000000
H    -1.066000000     1.779000000     1.255000000
C     0.586000000     0.340000000     1.040000000
H     1.180000000     0.618000000     1.863000000
C     1.042000000    -0.723000000     0.283000000
H     2.002000000    -1.173000000     0.522000000
C     0.400000000    -1.091000000    -0.909000000
H     0.757000000    -1.915000000    -1.523000000
C    -0.782000000    -0.499000000    -1.242000000
C    -1.440000000    -0.850000000    -2.581000000
O    -0.936000000    -1.641000000    -3.350000000
O    -2.470000000    -0.274000000    -2.884000000
