14
-89.34643
C    -1.275000000     0.144000000    -0.745000000
H    -2.243000000     0.323000000    -1.206000000
C    -1.162000000    -0.048000000     0.628000000
H    -2.069000000     0.114000000     1.204000000
C     0.084000000    -0.165000000     1.156000000
H     0.164000000    -0.180000000     2.227000000
C     1.246000000    -0.226000000     0.418000000
H     2.221000000    -0.311000000     0.889000000
C     1.166000000    -0.215000000    -0.951000000
H     2.074000000    -0.468000000    -1.493000000
C    -0.107000000    -0.052000000    -1.583000000
C    -0.256000000     0.164000000    -3.077000000
O     0.748000000     0.354000000    -3.781000000
O    -1.400000000     0.214000000    -3.571000000
