14
-86.36953
C    -0.673000000     1.044000000    -0.786000000
H    -1.300000000     1.773000000    -1.294000000
C    -1.134000000    -0.241000000    -0.540000000
H    -2.151000000    -0.425000000    -0.877000000
C    -0.383000000    -1.157000000     0.154000000
H    -0.665000000    -2.170000000     0.368000000
C     0.805000000    -0.754000000     0.712000000
H     1.257000000    -1.486000000     1.376000000
C     1.294000000     0.523000000     0.545000000
H     2.275000000     0.746000000     0.958000000
C     0.602000000     1.422000000    -0.283000000
C     1.066000000     2.847000000    -0.505000000
O     2.035000000     3.231000000     0.054000000
O     0.473000000     3.576000000    -1.290000000
