14
-90.37971
C    -0.508000000     1.045000000    -0.931000000
H    -0.908000000     1.680000000    -1.718000000
C    -1.005000000    -0.265000000    -0.792000000
H    -1.764000000    -0.596000000    -1.496000000
C    -0.536000000    -1.076000000     0.214000000
H    -0.954000000    -2.050000000     0.341000000
C     0.550000000    -0.691000000     0.925000000
H     0.901000000    -1.379000000     1.690000000
C     1.090000000     0.553000000     0.749000000
H     2.016000000     0.751000000     1.283000000
C     0.562000000     1.503000000    -0.153000000
C     1.077000000     2.891000000    -0.223000000
O     2.063000000     3.202000000     0.503000000
O     0.659000000     3.627000000    -1.099000000
