14
-90.93918
C    -0.686000000     0.960000000    -0.916000000
H    -1.044000000     1.518000000    -1.777000000
C    -1.087000000    -0.384000000    -0.742000000
H    -1.800000000    -0.859000000    -1.411000000
C    -0.413000000    -1.157000000     0.178000000
H    -0.705000000    -2.248000000     0.315000000
C     0.499000000    -0.537000000     1.031000000
H     0.966000000    -1.194000000     1.760000000
C     0.850000000     0.783000000     0.907000000
H     1.646000000     1.162000000     1.542000000
C     0.333000000     1.553000000    -0.147000000
C     0.927000000     2.879000000    -0.558000000
O     1.606000000     3.467000000     0.284000000
O     0.741000000     3.394000000    -1.670000000
