14
-88.23706
C    -0.692000000     0.478000000    -1.241000000
H    -1.167000000     0.667000000    -2.200000000
C    -0.757000000    -0.801000000    -0.707000000
H    -1.239000000    -1.602000000    -1.262000000
C    -0.144000000    -1.135000000     0.474000000
H    -0.081000000    -2.190000000     0.882000000
C     0.683000000    -0.218000000     1.075000000
H     1.156000000    -0.420000000     2.033000000
C     0.756000000     1.076000000     0.608000000
H     1.447000000     1.809000000     1.017000000
C     0.135000000     1.417000000    -0.595000000
C     0.225000000     2.867000000    -1.108000000
O     1.194000000     3.542000000    -0.836000000
O    -0.729000000     3.408000000    -1.701000000
