14
-86.58873
C     0.591000000     0.920000000    -1.078000000
H     0.769000000     1.650000000    -1.864000000
C    -0.125000000    -0.251000000    -1.235000000
H    -0.426000000    -0.497000000    -2.250000000
C    -0.608000000    -1.087000000    -0.226000000
H    -1.193000000    -1.974000000    -0.474000000
C    -0.397000000    -0.658000000     1.075000000
H    -0.797000000    -1.134000000     1.967000000
C     0.419000000     0.466000000     1.341000000
H     0.552000000     0.750000000     2.382000000
C     0.805000000     1.302000000     0.286000000
C     1.599000000     2.531000000     0.551000000
O     2.013000000     2.704000000     1.706000000
O     1.773000000     3.464000000    -0.245000000
