14
-89.82563
C     1.309000000    -0.603000000    -0.267000000
H     2.263000000    -1.100000000    -0.417000000
C     0.187000000    -1.268000000     0.221000000
H     0.212000000    -2.331000000     0.445000000
C    -1.028000000    -0.595000000     0.374000000
H    -1.952000000    -1.141000000     0.591000000
C    -1.103000000     0.797000000     0.169000000
H    -2.060000000     1.306000000     0.244000000
C     0.074000000     1.427000000    -0.281000000
H     0.040000000     2.499000000    -0.455000000
C     1.323000000     0.757000000    -0.506000000
C     2.544000000     1.548000000    -0.876000000
O     2.530000000     2.761000000    -1.202000000
O     3.627000000     1.009000000    -0.809000000
