14
-88.21254
C     0.921000000     0.873000000    -0.694000000
H     1.636000000     1.405000000    -1.316000000
C     0.962000000    -0.481000000    -0.729000000
H     1.665000000    -0.994000000    -1.381000000
C     0.049000000    -1.177000000     0.007000000
H     0.226000000    -2.301000000     0.119000000
C    -0.875000000    -0.552000000     0.818000000
H    -1.425000000    -1.149000000     1.542000000
C    -1.011000000     0.847000000     0.697000000
H    -1.816000000     1.337000000     1.238000000
C    -0.042000000     1.585000000    -0.011000000
C    -0.091000000     3.044000000     0.035000000
O    -1.160000000     3.576000000     0.272000000
O     1.000000000     3.616000000    -0.136000000
