14
-83.90799
C     1.118000000    -0.263000000    -0.869000000
H     1.898000000    -0.646000000    -1.522000000
C     0.131000000    -1.147000000    -0.450000000
H     0.205000000    -2.169000000    -0.812000000
C    -0.859000000    -0.837000000     0.378000000
H    -1.606000000    -1.575000000     0.666000000
C    -0.981000000     0.538000000     0.727000000
H    -1.858000000     0.840000000     1.294000000
C     0.021000000     1.441000000     0.346000000
H     0.006000000     2.479000000     0.669000000
C     1.056000000     1.066000000    -0.458000000
C     2.203000000     2.049000000    -0.792000000
O     2.196000000     3.213000000    -0.473000000
O     3.207000000     1.625000000    -1.311000000
