14
-90.91661
C     0.778000000    -0.632000000    -1.127000000
H     1.249000000    -1.117000000    -1.979000000
C    -0.444000000    -1.096000000    -0.611000000
H    -0.889000000    -2.020000000    -0.971000000
C    -1.041000000    -0.396000000     0.410000000
H    -1.966000000    -0.803000000     0.855000000
C    -0.529000000     0.754000000     0.933000000
H    -1.023000000     1.278000000     1.747000000
C     0.678000000     1.200000000     0.450000000
H     1.138000000     2.053000000     0.943000000
C     1.350000000     0.534000000    -0.566000000
C     2.724000000     0.991000000    -0.965000000
O     3.165000000     2.102000000    -0.594000000
O     3.311000000     0.398000000    -1.858000000
