14
-91.73176
C     0.494000000    -0.431000000    -1.361000000
H     0.848000000    -0.782000000    -2.327000000
C    -0.561000000    -1.021000000    -0.701000000
H    -0.994000000    -1.937000000    -1.095000000
C    -1.113000000    -0.429000000     0.444000000
H    -2.030000000    -0.930000000     0.801000000
C    -0.474000000     0.662000000     1.006000000
H    -0.847000000     1.052000000     1.950000000
C     0.622000000     1.285000000     0.362000000
H     1.115000000     2.168000000     0.759000000
C     1.159000000     0.670000000    -0.773000000
C     2.456000000     1.287000000    -1.392000000
O     3.087000000     2.134000000    -0.770000000
O     2.959000000     0.799000000    -2.414000000
