14
-88.68552
C    -0.486000000    -1.236000000    -0.802000000
H    -1.048000000    -2.023000000    -1.299000000
C    -0.543000000    -1.112000000     0.589000000
H    -1.027000000    -1.917000000     1.135000000
C     0.022000000     0.069000000     1.230000000
H    -0.116000000     0.200000000     2.236000000
C     0.717000000     1.028000000     0.498000000
H     1.033000000     1.987000000     0.903000000
C     0.744000000     0.910000000    -0.897000000
H     1.067000000     1.740000000    -1.521000000
C     0.127000000    -0.218000000    -1.529000000
C     0.098000000    -0.236000000    -3.063000000
O     0.765000000     0.593000000    -3.705000000
O    -0.489000000    -1.125000000    -3.678000000
