14
-89.25139
C    -0.958000000    -1.130000000    -0.049000000
H    -1.743000000    -1.880000000    -0.106000000
C    -0.800000000    -0.243000000     1.033000000
H    -1.502000000    -0.248000000     1.863000000
C     0.259000000     0.697000000     1.063000000
H     0.441000000     1.218000000     2.032000000
C     1.068000000     0.760000000    -0.096000000
H     1.820000000     1.535000000    -0.221000000
C     0.686000000     0.074000000    -1.241000000
H     1.290000000     0.250000000    -2.127000000
C    -0.256000000    -0.964000000    -1.249000000
C    -0.563000000    -1.815000000    -2.519000000
O     0.063000000    -1.630000000    -3.539000000
O    -1.334000000    -2.756000000    -2.366000000
