14
-84.18713
C     0.221000000    -1.462000000     0.438000000
H     0.523000000    -2.450000000     0.775000000
C     0.647000000    -0.346000000     1.119000000
H     1.105000000    -0.419000000     2.102000000
C     0.480000000     0.945000000     0.588000000
H     0.899000000     1.759000000     1.048000000
C    -0.009000000     1.160000000    -0.691000000
H     0.016000000     2.125000000    -1.191000000
C    -0.562000000     0.046000000    -1.343000000
H    -1.003000000     0.071000000    -2.336000000
C    -0.496000000    -1.247000000    -0.751000000
C    -1.181000000    -2.393000000    -1.359000000
O    -1.590000000    -2.421000000    -2.514000000
O    -1.473000000    -3.354000000    -0.662000000
