14
-87.67132
C     1.011000000    -0.525000000     0.947000000
H     1.718000000    -0.853000000     1.705000000
C     0.392000000     0.743000000     1.019000000
H     0.603000000     1.403000000     1.857000000
C    -0.456000000     1.122000000     0.027000000
H    -0.970000000     2.130000000     0.064000000
C    -0.777000000     0.298000000    -0.998000000
H    -1.427000000     0.692000000    -1.775000000
C    -0.135000000    -0.979000000    -1.129000000
H    -0.275000000    -1.647000000    -1.976000000
C     0.690000000    -1.387000000    -0.106000000
C     1.129000000    -2.801000000    -0.029000000
O     1.175000000    -3.531000000    -1.029000000
O     1.363000000    -3.345000000     1.056000000
