14
-88.64855
C     0.842000000    -1.031000000     0.776000000
H     1.382000000    -1.794000000     1.329000000
C     0.266000000     0.124000000     1.301000000
H     0.425000000     0.375000000     2.347000000
C    -0.378000000     1.051000000     0.500000000
H    -0.705000000     2.000000000     0.883000000
C    -0.695000000     0.746000000    -0.827000000
H    -1.328000000     1.414000000    -1.406000000
C    -0.132000000    -0.404000000    -1.380000000
H    -0.311000000    -0.670000000    -2.418000000
C     0.624000000    -1.294000000    -0.598000000
C     1.158000000    -2.471000000    -1.281000000
O     0.937000000    -2.768000000    -2.458000000
O     1.890000000    -3.287000000    -0.680000000
