14
-85.80230
C     0.721000000    -1.018000000     0.841000000
H     1.302000000    -1.679000000     1.479000000
C     0.314000000     0.322000000     1.169000000
H     0.519000000     0.638000000     2.189000000
C    -0.385000000     1.147000000     0.295000000
H    -0.814000000     2.035000000     0.685000000
C    -0.653000000     0.693000000    -0.995000000
H    -1.202000000     1.297000000    -1.712000000
C    -0.159000000    -0.583000000    -1.311000000
H    -0.364000000    -0.998000000    -2.295000000
C     0.521000000    -1.462000000    -0.422000000
C     0.935000000    -2.801000000    -0.855000000
O     0.743000000    -3.148000000    -2.012000000
O     1.544000000    -3.588000000    -0.137000000
