14
-86.25490
C     0.974000000    -0.296000000    -1.121000000
H     1.784000000    -0.431000000    -1.833000000
C     0.409000000     0.954000000    -0.840000000
H     0.654000000     1.815000000    -1.457000000
C    -0.389000000     1.145000000     0.243000000
H    -0.804000000     2.121000000     0.501000000
C    -0.747000000     0.002000000     1.008000000
H    -1.457000000     0.139000000     1.820000000
C    -0.388000000    -1.248000000     0.547000000
H    -0.835000000    -2.036000000     1.149000000
C     0.543000000    -1.425000000    -0.435000000
C     1.096000000    -2.785000000    -0.635000000
O     0.424000000    -3.803000000    -0.244000000
O     2.139000000    -2.944000000    -1.198000000
