14
-87.21234
C     0.597000000    -0.796000000    -1.138000000
H     1.145000000    -1.231000000    -1.970000000
C     0.582000000     0.636000000    -1.031000000
H     1.140000000     1.238000000    -1.744000000
C     0.005000000     1.260000000     0.101000000
H     0.051000000     2.305000000     0.221000000
C    -0.736000000     0.467000000     1.011000000
H    -1.286000000     0.826000000     1.878000000
C    -0.710000000    -0.923000000     0.850000000
H    -1.147000000    -1.610000000     1.569000000
C    -0.103000000    -1.604000000    -0.202000000
C    -0.001000000    -3.085000000    -0.231000000
O    -0.324000000    -3.809000000     0.680000000
O     0.499000000    -3.565000000    -1.234000000
