14
-82.65309
C     0.972000000     0.639000000    -0.904000000
H     1.653000000     1.248000000    -1.494000000
C     0.061000000     1.262000000    -0.107000000
H     0.112000000     2.345000000    -0.031000000
C    -0.848000000     0.552000000     0.587000000
H    -1.568000000     1.075000000     1.154000000
C    -0.776000000    -0.823000000     0.676000000
H    -1.512000000    -1.315000000     1.307000000
C     0.149000000    -1.476000000    -0.064000000
H     0.138000000    -2.555000000     0.068000000
C     0.993000000    -0.720000000    -0.932000000
C     2.045000000    -1.438000000    -1.741000000
O     1.825000000    -2.624000000    -1.952000000
O     2.984000000    -0.901000000    -2.274000000
