14
-88.42942
C     0.976000000     1.128000000    -0.148000000
H     1.640000000     1.989000000    -0.117000000
C    -0.391000000     1.256000000     0.147000000
H    -0.818000000     2.227000000     0.384000000
C    -1.179000000     0.118000000     0.160000000
H    -2.255000000     0.210000000     0.344000000
C    -0.711000000    -1.133000000    -0.114000000
H    -1.300000000    -2.047000000    -0.127000000
C     0.612000000    -1.246000000    -0.388000000
H     0.987000000    -2.223000000    -0.683000000
C     1.505000000    -0.206000000    -0.338000000
C     2.986000000    -0.325000000    -0.533000000
O     3.456000000    -1.459000000    -0.645000000
O     3.790000000     0.653000000    -0.416000000
