14
-88.48068
C     1.352000000     0.631000000    -0.116000000
H     2.277000000     1.196000000    -0.192000000
C     0.085000000     1.291000000    -0.256000000
H     0.012000000     2.375000000    -0.295000000
C    -1.098000000     0.591000000    -0.116000000
H    -2.102000000     1.062000000    -0.074000000
C    -1.057000000    -0.779000000    -0.013000000
H    -1.995000000    -1.327000000     0.005000000
C     0.184000000    -1.509000000     0.064000000
H     0.242000000    -2.569000000     0.299000000
C     1.386000000    -0.763000000     0.034000000
C     2.718000000    -1.448000000     0.324000000
O     2.840000000    -2.619000000     0.074000000
O     3.719000000    -0.703000000     0.480000000
