14
-84.11939
C     1.215000000     0.644000000    -0.499000000
H     1.918000000     1.222000000    -1.093000000
C     0.049000000     1.348000000    -0.174000000
H    -0.187000000     2.375000000    -0.441000000
C    -0.992000000     0.615000000     0.373000000
H    -1.983000000     1.049000000     0.542000000
C    -0.913000000    -0.724000000     0.555000000
H    -1.793000000    -1.268000000     0.888000000
C     0.271000000    -1.384000000     0.191000000
H     0.364000000    -2.431000000     0.467000000
C     1.416000000    -0.758000000    -0.313000000
C     2.640000000    -1.495000000    -0.832000000
O     2.737000000    -2.702000000    -0.767000000
O     3.585000000    -0.852000000    -1.264000000
