14
-83.90060
C     0.966000000     1.012000000    -0.558000000
H     1.597000000     1.836000000    -0.882000000
C    -0.152000000     1.277000000     0.258000000
H    -0.442000000     2.298000000     0.492000000
C    -1.097000000     0.253000000     0.525000000
H    -1.941000000     0.483000000     1.151000000
C    -0.678000000    -1.038000000     0.359000000
H    -1.365000000    -1.778000000     0.760000000
C     0.472000000    -1.369000000    -0.327000000
H     0.665000000    -2.407000000    -0.587000000
C     1.304000000    -0.359000000    -0.783000000
C     2.592000000    -0.695000000    -1.681000000
O     2.735000000    -1.785000000    -2.210000000
O     3.481000000     0.099000000    -1.645000000
