14
-89.87395
C     0.785000000     1.260000000    -0.183000000
H     1.147000000     2.279000000    -0.292000000
C    -0.494000000     1.224000000     0.328000000
H    -1.050000000     2.124000000     0.579000000
C    -1.100000000    -0.015000000     0.522000000
H    -2.077000000    -0.005000000     1.015000000
C    -0.471000000    -1.160000000     0.068000000
H    -0.905000000    -2.157000000     0.079000000
C     0.843000000    -1.081000000    -0.433000000
H     1.235000000    -2.011000000    -0.838000000
C     1.533000000     0.134000000    -0.539000000
C     2.820000000     0.223000000    -1.211000000
O     3.621000000    -0.714000000    -1.099000000
O     3.051000000     1.271000000    -1.797000000
