14
-81.15558
C     0.400000000     1.417000000     0.282000000
H     0.648000000     2.475000000     0.290000000
C    -0.857000000     0.912000000     0.501000000
H    -1.613000000     1.609000000     0.854000000
C    -1.172000000    -0.424000000     0.188000000
H    -2.202000000    -0.792000000     0.410000000
C    -0.159000000    -1.270000000    -0.227000000
H    -0.410000000    -2.302000000    -0.456000000
C     1.148000000    -0.793000000    -0.515000000
H     1.907000000    -1.496000000    -0.848000000
C     1.407000000     0.590000000    -0.252000000
C     2.871000000     1.014000000    -0.408000000
O     3.745000000     0.248000000    -0.392000000
O     3.166000000     2.225000000    -0.297000000
