14
-87.40325
C     1.460000000     0.320000000    -0.257000000
H     2.483000000     0.680000000    -0.320000000
C     0.394000000     1.218000000    -0.118000000
H     0.557000000     2.287000000    -0.006000000
C    -0.898000000     0.827000000     0.034000000
H    -1.708000000     1.598000000     0.194000000
C    -1.234000000    -0.491000000     0.047000000
H    -2.259000000    -0.851000000     0.037000000
C    -0.205000000    -1.450000000     0.109000000
H    -0.457000000    -2.506000000     0.172000000
C     1.155000000    -1.055000000    -0.026000000
C     2.196000000    -2.099000000     0.008000000
O     1.939000000    -3.273000000     0.202000000
O     3.338000000    -1.733000000    -0.245000000
