14
-83.74935
C     1.362000000     0.519000000    -0.572000000
H     2.302000000     0.934000000    -0.927000000
C     0.082000000     1.125000000    -0.734000000
H     0.028000000     2.150000000    -1.091000000
C    -1.037000000     0.553000000    -0.217000000
H    -1.958000000     1.173000000    -0.226000000
C    -1.024000000    -0.648000000     0.495000000
H    -1.926000000    -1.044000000     0.954000000
C     0.173000000    -1.340000000     0.611000000
H     0.184000000    -2.223000000     1.244000000
C     1.355000000    -0.774000000     0.133000000
C     2.606000000    -1.533000000     0.355000000
O     2.603000000    -2.669000000     0.753000000
O     3.624000000    -0.904000000     0.213000000
