14
-86.63978
C     1.365000000    -0.661000000    -0.143000000
H     2.417000000    -0.918000000    -0.228000000
C     0.973000000     0.654000000    -0.473000000
H     1.716000000     1.380000000    -0.792000000
C    -0.303000000     1.169000000    -0.284000000
H    -0.528000000     2.190000000    -0.526000000
C    -1.300000000     0.267000000     0.068000000
H    -2.327000000     0.607000000     0.170000000
C    -0.970000000    -1.072000000     0.367000000
H    -1.777000000    -1.709000000     0.721000000
C     0.359000000    -1.502000000     0.372000000
C     0.764000000    -2.837000000     1.008000000
O    -0.114000000    -3.597000000     1.357000000
O     1.890000000    -3.222000000     0.911000000
