14
-86.81820
C     1.169000000     0.232000000    -0.915000000
H     1.904000000     0.514000000    -1.665000000
C    -0.126000000     0.823000000    -0.994000000
H    -0.339000000     1.511000000    -1.808000000
C    -1.164000000     0.436000000    -0.161000000
H    -2.079000000     0.979000000    -0.217000000
C    -0.912000000    -0.455000000     0.901000000
H    -1.618000000    -0.663000000     1.701000000
C     0.396000000    -0.984000000     1.064000000
H     0.574000000    -1.673000000     1.886000000
C     1.457000000    -0.625000000     0.167000000
C     2.822000000    -1.242000000     0.311000000
O     3.015000000    -2.139000000     1.125000000
O     3.776000000    -0.722000000    -0.198000000
