14
-89.56965
C     1.214000000     0.511000000     0.736000000
H     2.068000000     1.021000000     1.176000000
C     0.504000000     1.268000000    -0.215000000
H     0.707000000     2.310000000    -0.447000000
C    -0.625000000     0.647000000    -0.781000000
H    -1.184000000     1.270000000    -1.518000000
C    -0.985000000    -0.671000000    -0.498000000
H    -1.829000000    -1.113000000    -1.021000000
C    -0.221000000    -1.426000000     0.387000000
H    -0.482000000    -2.461000000     0.594000000
C     0.878000000    -0.796000000     1.055000000
C     1.676000000    -1.589000000     2.025000000
O     1.223000000    -2.606000000     2.476000000
O     2.645000000    -1.035000000     2.552000000
