14
-77.72350
C     1.270000000    -0.183000000     0.724000000
H     2.209000000    -0.066000000     1.260000000
C     0.991000000     0.662000000    -0.313000000
H     1.721000000     1.430000000    -0.556000000
C    -0.220000000     0.670000000    -0.970000000
H    -0.376000000     1.395000000    -1.660000000
C    -1.209000000    -0.149000000    -0.562000000
H    -2.143000000    -0.182000000    -1.117000000
C    -1.018000000    -1.036000000     0.456000000
H    -1.715000000    -1.800000000     0.791000000
C     0.194000000    -0.941000000     1.170000000
C     0.399000000    -1.625000000     2.475000000
O    -0.523000000    -2.109000000     3.119000000
O     1.489000000    -1.723000000     2.983000000
