14
-84.72490
C     1.003000000     0.115000000     1.125000000
H     1.799000000     0.283000000     1.845000000
C     1.008000000     0.844000000    -0.110000000
H     1.850000000     1.525000000    -0.205000000
C     0.001000000     0.663000000    -1.078000000
H    -0.029000000     1.229000000    -1.988000000
C    -1.020000000    -0.256000000    -0.878000000
H    -1.873000000    -0.408000000    -1.534000000
C    -0.918000000    -1.032000000     0.267000000
H    -1.628000000    -1.811000000     0.535000000
C     0.038000000    -0.888000000     1.332000000
C    -0.086000000    -1.604000000     2.660000000
O    -0.950000000    -2.407000000     2.862000000
O     0.756000000    -1.428000000     3.514000000
