14
-89.30292
C     1.067000000    -1.020000000     0.187000000
H     1.884000000    -1.717000000     0.357000000
C     0.870000000    -0.212000000    -0.913000000
H     1.690000000    -0.264000000    -1.624000000
C    -0.119000000     0.687000000    -1.008000000
H    -0.227000000     1.287000000    -1.893000000
C    -1.068000000     0.761000000     0.004000000
H    -1.844000000     1.516000000    -0.085000000
C    -0.921000000     0.012000000     1.147000000
H    -1.696000000     0.031000000     1.908000000
C     0.118000000    -0.899000000     1.230000000
C     0.265000000    -1.807000000     2.440000000
O    -0.355000000    -1.460000000     3.417000000
O     0.828000000    -2.917000000     2.358000000
