14
-77.87843
C     0.585000000    -1.366000000    -0.150000000
H     1.184000000    -2.272000000    -0.168000000
C     0.809000000    -0.306000000    -0.975000000
H     1.478000000    -0.367000000    -1.830000000
C     0.241000000     0.886000000    -0.713000000
H     0.424000000     1.767000000    -1.374000000
C    -0.725000000     1.093000000     0.255000000
H    -1.136000000     2.093000000     0.365000000
C    -1.105000000    -0.031000000     1.042000000
H    -1.933000000    -0.006000000     1.745000000
C    -0.339000000    -1.210000000     0.881000000
C    -0.468000000    -2.282000000     1.897000000
O    -1.153000000    -2.118000000     2.842000000
O     0.123000000    -3.325000000     1.802000000
