14
-86.64332
C     1.123000000    -0.954000000     0.288000000
H     1.969000000    -1.573000000     0.577000000
C     1.310000000     0.372000000    -0.011000000
H     2.273000000     0.860000000    -0.141000000
C     0.221000000     1.155000000    -0.331000000
H     0.294000000     2.179000000    -0.612000000
C    -1.117000000     0.602000000    -0.373000000
H    -1.883000000     1.244000000    -0.802000000
C    -1.378000000    -0.703000000     0.121000000
H    -2.392000000    -1.093000000     0.151000000
C    -0.194000000    -1.469000000     0.443000000
C    -0.365000000    -2.848000000     0.992000000
O    -1.472000000    -3.391000000     1.041000000
O     0.633000000    -3.538000000     1.246000000
