14
-82.55032
C     0.916000000    -1.221000000     0.141000000
H     1.636000000    -2.033000000     0.079000000
C     1.251000000     0.149000000    -0.198000000
H     2.247000000     0.447000000    -0.516000000
C     0.317000000     1.137000000    -0.343000000
H     0.650000000     2.147000000    -0.618000000
C    -0.978000000     0.828000000    -0.017000000
H    -1.732000000     1.610000000    -0.040000000
C    -1.350000000    -0.452000000     0.292000000
H    -2.413000000    -0.574000000     0.486000000
C    -0.427000000    -1.452000000     0.494000000
C    -0.839000000    -2.880000000     0.943000000
O    -1.772000000    -2.973000000     1.677000000
O    -0.240000000    -3.884000000     0.615000000
