14
-85.49517
C     0.982000000    -1.115000000    -0.096000000
H     1.739000000    -1.887000000    -0.207000000
C     1.062000000     0.118000000    -0.790000000
H     1.943000000     0.241000000    -1.415000000
C     0.109000000     1.068000000    -0.612000000
H     0.189000000     1.928000000    -1.225000000
C    -0.903000000     0.845000000     0.302000000
H    -1.706000000     1.564000000     0.439000000
C    -1.004000000    -0.368000000     0.997000000
H    -1.798000000    -0.621000000     1.695000000
C     0.008000000    -1.280000000     0.832000000
C    -0.054000000    -2.644000000     1.544000000
O    -0.794000000    -2.879000000     2.477000000
O     0.683000000    -3.588000000     1.219000000
