14
-90.68865
C     0.006000000     0.510000000    -1.363000000
H     0.104000000     0.816000000    -2.402000000
C     0.346000000    -0.774000000    -0.961000000
H     0.633000000    -1.452000000    -1.760000000
C     0.269000000    -1.129000000     0.359000000
H     0.547000000    -2.122000000     0.747000000
C    -0.164000000    -0.229000000     1.271000000
H    -0.099000000    -0.501000000     2.322000000
C    -0.604000000     1.044000000     0.833000000
H    -0.988000000     1.674000000     1.632000000
C    -0.519000000     1.471000000    -0.477000000
C    -0.850000000     2.877000000    -0.856000000
O    -1.243000000     3.640000000     0.081000000
O    -0.626000000     3.283000000    -1.973000000
