14
-80.93816
C     0.481000000    -1.297000000    -0.198000000
H     0.900000000    -2.270000000    -0.443000000
C     0.658000000    -0.250000000    -1.096000000
H     1.300000000    -0.487000000    -1.941000000
C     0.147000000     0.995000000    -0.815000000
H     0.248000000     1.883000000    -1.455000000
C    -0.556000000     1.098000000     0.436000000
H    -1.011000000     2.055000000     0.681000000
C    -0.671000000     0.048000000     1.377000000
H    -1.300000000     0.199000000     2.251000000
C    -0.146000000    -1.188000000     1.050000000
C    -0.419000000    -2.334000000     1.999000000
O    -0.699000000    -2.208000000     3.182000000
O    -0.170000000    -3.435000000     1.636000000
