14
-89.81129
C     0.777000000    -1.230000000    -0.313000000
H     1.480000000    -2.010000000    -0.594000000
C     0.614000000    -0.146000000    -1.162000000
H     1.367000000    -0.078000000    -1.943000000
C    -0.123000000     0.973000000    -0.764000000
H    -0.260000000     1.818000000    -1.424000000
C    -0.766000000     0.994000000     0.503000000
H    -1.334000000     1.831000000     0.901000000
C    -0.699000000    -0.157000000     1.283000000
H    -1.318000000    -0.225000000     2.174000000
C     0.006000000    -1.320000000     0.840000000
C     0.108000000    -2.513000000     1.772000000
O    -0.253000000    -2.361000000     2.926000000
O     0.414000000    -3.645000000     1.329000000
