14
-85.96834
C     1.408000000     0.446000000     0.333000000
H     2.484000000     0.598000000     0.330000000
C     0.812000000     0.404000000    -0.928000000
H     1.505000000     0.569000000    -1.749000000
C    -0.532000000     0.051000000    -1.085000000
H    -0.896000000     0.114000000    -2.093000000
C    -1.359000000    -0.228000000     0.000000000
H    -2.414000000    -0.443000000    -0.150000000
C    -0.752000000    -0.202000000     1.297000000
H    -1.387000000    -0.505000000     2.125000000
C     0.602000000     0.125000000     1.418000000
C     1.326000000    -0.229000000     2.763000000
O     0.782000000    -1.072000000     3.476000000
O     2.434000000     0.199000000     3.167000000
