14
-88.92509
C     0.628000000    -0.559000000    -1.185000000
H     1.053000000    -1.080000000    -2.039000000
C    -0.609000000    -0.886000000    -0.704000000
H    -1.213000000    -1.615000000    -1.238000000
C    -1.156000000    -0.267000000     0.411000000
H    -2.266000000    -0.378000000     0.648000000
C    -0.381000000     0.726000000     1.001000000
H    -0.803000000     1.284000000     1.834000000
C     0.877000000     0.991000000     0.565000000
H     1.501000000     1.724000000     1.070000000
C     1.452000000     0.367000000    -0.578000000
C     2.854000000     0.573000000    -1.010000000
O     3.374000000     1.621000000    -0.654000000
O     3.433000000    -0.216000000    -1.756000000
