14
-92.78919
C     1.053000000    -1.030000000    -0.032000000
H     1.649000000    -1.939000000    -0.030000000
C    -0.304000000    -1.233000000     0.305000000
H    -0.636000000    -2.254000000     0.472000000
C    -1.169000000    -0.153000000     0.352000000
H    -2.190000000    -0.308000000     0.634000000
C    -0.695000000     1.127000000     0.156000000
H    -1.392000000     1.958000000     0.232000000
C     0.629000000     1.321000000    -0.229000000
H     0.875000000     2.360000000    -0.435000000
C     1.550000000     0.228000000    -0.397000000
C     2.937000000     0.431000000    -0.962000000
O     3.431000000     1.568000000    -0.963000000
O     3.541000000    -0.521000000    -1.495000000
