14
-87.09899
C     0.877000000    -0.174000000     1.219000000
H     1.462000000    -0.303000000     2.126000000
C    -0.041000000     0.870000000     0.975000000
H    -0.140000000     1.705000000     1.665000000
C    -0.780000000     0.916000000    -0.223000000
H    -1.432000000     1.677000000    -0.300000000
C    -0.700000000    -0.069000000    -1.185000000
H    -1.352000000    -0.103000000    -2.055000000
C     0.101000000    -1.204000000    -0.877000000
H     0.252000000    -1.959000000    -1.644000000
C     0.926000000    -1.218000000     0.256000000
C     1.867000000    -2.371000000     0.578000000
O     2.072000000    -3.143000000    -0.337000000
O     2.104000000    -2.634000000     1.738000000
