14
-91.40684
C     1.424000000    -0.475000000    -0.276000000
H     2.342000000    -0.980000000    -0.568000000
C     0.506000000    -1.116000000     0.544000000
H     0.673000000    -2.063000000     1.050000000
C    -0.733000000    -0.565000000     0.790000000
H    -1.392000000    -1.144000000     1.409000000
C    -0.997000000     0.735000000     0.328000000
H    -1.940000000     1.229000000     0.551000000
C    -0.124000000     1.364000000    -0.560000000
H    -0.381000000     2.358000000    -0.915000000
C     1.064000000     0.749000000    -0.900000000
C     1.898000000     1.323000000    -2.006000000
O     1.607000000     2.399000000    -2.555000000
O     2.962000000     0.774000000    -2.288000000
