14
-87.42201
C     1.433000000    -0.102000000     0.047000000
H     2.465000000    -0.428000000     0.144000000
C     0.565000000    -0.472000000     1.029000000
H     0.987000000    -0.779000000     1.983000000
C    -0.784000000    -0.250000000     0.906000000
H    -1.479000000    -0.546000000     1.683000000
C    -1.321000000     0.251000000    -0.305000000
H    -2.391000000     0.390000000    -0.438000000
C    -0.422000000     0.460000000    -1.377000000
H    -0.786000000     0.610000000    -2.390000000
C     0.937000000     0.241000000    -1.206000000
C     1.919000000     0.533000000    -2.311000000
O     1.485000000     1.031000000    -3.330000000
O     3.122000000     0.403000000    -2.152000000
