14
-93.60644
C     0.957000000    -0.899000000    -0.629000000
H     1.681000000    -1.642000000    -0.953000000
C     0.843000000    -0.690000000     0.773000000
H     1.472000000    -1.144000000     1.534000000
C    -0.135000000     0.198000000     1.192000000
H    -0.332000000     0.288000000     2.291000000
C    -0.946000000     0.864000000     0.307000000
H    -1.768000000     1.498000000     0.630000000
C    -0.733000000     0.700000000    -1.061000000
H    -1.339000000     1.285000000    -1.748000000
C     0.194000000    -0.173000000    -1.573000000
C     0.471000000    -0.233000000    -3.112000000
O    -0.286000000     0.365000000    -3.859000000
O     1.381000000    -0.961000000    -3.496000000
