14
-86.07190
C    -1.270000000     0.425000000    -0.628000000
H    -2.240000000     0.636000000    -1.072000000
C    -1.148000000    -0.699000000     0.204000000
H    -2.021000000    -1.335000000     0.324000000
C     0.103000000    -1.018000000     0.679000000
H     0.267000000    -1.884000000     1.351000000
C     1.217000000    -0.170000000     0.545000000
H     2.185000000    -0.312000000     1.018000000
C     1.037000000     0.969000000    -0.212000000
H     1.920000000     1.593000000    -0.316000000
C    -0.181000000     1.292000000    -0.835000000
C    -0.247000000     2.415000000    -1.859000000
O     0.767000000     3.072000000    -2.111000000
O    -1.275000000     2.748000000    -2.328000000
