14
-89.29142
C     0.330000000    -1.472000000    -0.224000000
H     0.682000000    -2.499000000    -0.283000000
C     0.684000000    -0.679000000     0.860000000
H     1.205000000    -1.245000000     1.628000000
C     0.371000000     0.666000000     0.971000000
H     0.705000000     1.195000000     1.877000000
C    -0.322000000     1.255000000    -0.055000000
H    -0.478000000     2.317000000     0.118000000
C    -0.759000000     0.488000000    -1.098000000
H    -1.438000000     1.019000000    -1.760000000
C    -0.433000000    -0.893000000    -1.251000000
C    -1.001000000    -1.730000000    -2.366000000
O    -1.570000000    -1.139000000    -3.293000000
O    -0.768000000    -2.917000000    -2.361000000
