14
-89.65289
C    -0.499000000    -1.294000000    -0.387000000
H    -0.702000000    -2.359000000    -0.474000000
C     0.418000000    -1.038000000     0.585000000
H     0.780000000    -1.846000000     1.215000000
C     0.884000000     0.230000000     0.811000000
H     1.599000000     0.480000000     1.563000000
C     0.315000000     1.303000000     0.151000000
H     0.571000000     2.348000000     0.306000000
C    -0.682000000     1.008000000    -0.829000000
H    -1.064000000     1.827000000    -1.433000000
C    -1.138000000    -0.257000000    -1.085000000
C    -2.186000000    -0.587000000    -2.157000000
O    -2.893000000     0.319000000    -2.526000000
O    -2.204000000    -1.715000000    -2.683000000
