14
-88.76803
C    -0.792000000    -1.245000000    -0.341000000
H    -1.305000000    -2.203000000    -0.374000000
C     0.294000000    -1.149000000     0.534000000
H     0.612000000    -2.031000000     1.084000000
C     0.984000000     0.055000000     0.794000000
H     1.738000000     0.204000000     1.561000000
C     0.549000000     1.157000000     0.086000000
H     0.971000000     2.153000000     0.192000000
C    -0.489000000     1.017000000    -0.869000000
H    -0.923000000     1.884000000    -1.361000000
C    -1.170000000    -0.140000000    -1.093000000
C    -2.353000000    -0.216000000    -2.011000000
O    -2.584000000     0.717000000    -2.731000000
O    -3.014000000    -1.241000000    -2.078000000
