14
-81.95496
C    -1.283000000    -0.536000000     0.570000000
H    -2.212000000    -0.838000000     1.047000000
C    -0.210000000     0.040000000     1.254000000
H    -0.285000000     0.356000000     2.291000000
C     0.993000000     0.443000000     0.646000000
H     1.794000000     0.920000000     1.264000000
C     1.164000000     0.179000000    -0.686000000
H     1.971000000     0.635000000    -1.253000000
C     0.088000000    -0.460000000    -1.365000000
H     0.097000000    -0.488000000    -2.452000000
C    -1.133000000    -0.780000000    -0.783000000
C    -2.272000000    -1.244000000    -1.592000000
O    -2.246000000    -1.239000000    -2.792000000
O    -3.234000000    -1.755000000    -1.062000000
