14
-79.50312
C    -1.485000000    -0.089000000     0.191000000
H    -2.554000000     0.015000000     0.358000000
C    -0.534000000     0.335000000     1.138000000
H    -0.778000000     0.817000000     2.081000000
C     0.825000000     0.269000000     0.864000000
H     1.588000000     0.461000000     1.571000000
C     1.187000000    -0.197000000    -0.370000000
H     2.249000000    -0.176000000    -0.602000000
C     0.293000000    -0.577000000    -1.315000000
H     0.779000000    -0.875000000    -2.241000000
C    -1.053000000    -0.391000000    -1.098000000
C    -2.017000000    -0.622000000    -2.234000000
O    -1.606000000    -0.976000000    -3.305000000
O    -3.208000000    -0.677000000    -2.043000000
