14
-84.44633
C    -0.647000000    -1.232000000    -0.336000000
H    -1.184000000    -2.172000000    -0.444000000
C     0.139000000    -1.016000000     0.796000000
H     0.377000000    -1.859000000     1.439000000
C     0.732000000     0.226000000     1.016000000
H     1.251000000     0.495000000     1.901000000
C     0.526000000     1.221000000     0.043000000
H     0.834000000     2.247000000     0.227000000
C    -0.198000000     0.961000000    -1.124000000
H    -0.267000000     1.789000000    -1.825000000
C    -0.830000000    -0.240000000    -1.277000000
C    -1.725000000    -0.495000000    -2.514000000
O    -1.843000000     0.403000000    -3.348000000
O    -2.180000000    -1.544000000    -2.814000000
