14
-78.55463
C    -0.119000000    -0.968000000    -1.115000000
H    -0.258000000    -1.762000000    -1.844000000
C     0.520000000    -1.230000000     0.082000000
H     1.062000000    -2.171000000     0.113000000
C     0.499000000    -0.266000000     1.062000000
H     0.921000000    -0.429000000     2.018000000
C    -0.116000000     0.972000000     0.910000000
H     0.027000000     1.808000000     1.590000000
C    -0.820000000     1.268000000    -0.312000000
H    -1.165000000     2.278000000    -0.519000000
C    -0.714000000     0.272000000    -1.282000000
C    -1.381000000     0.503000000    -2.633000000
O    -2.118000000     1.468000000    -2.825000000
O    -1.207000000    -0.230000000    -3.524000000
