14
-80.44113
C    -1.452000000     0.357000000    -0.127000000
H    -2.499000000     0.641000000    -0.059000000
C    -1.027000000    -0.734000000     0.530000000
H    -1.693000000    -1.390000000     1.084000000
C     0.376000000    -1.031000000     0.526000000
H     0.724000000    -1.864000000     1.010000000
C     1.246000000    -0.211000000    -0.102000000
H     2.315000000    -0.350000000     0.037000000
C     0.795000000     0.919000000    -0.738000000
H     1.540000000     1.561000000    -1.201000000
C    -0.550000000     1.243000000    -0.758000000
C    -1.109000000     2.396000000    -1.558000000
O    -0.398000000     3.232000000    -2.039000000
O    -2.285000000     2.544000000    -1.695000000
