14
-89.55907
C     1.049000000    -0.008000000    -0.992000000
H     2.007000000     0.024000000    -1.504000000
C     1.185000000     0.093000000     0.377000000
H     2.207000000     0.217000000     0.725000000
C     0.079000000     0.055000000     1.259000000
H     0.174000000     0.162000000     2.327000000
C    -1.142000000    -0.061000000     0.703000000
H    -1.956000000    -0.002000000     1.421000000
C    -1.308000000    -0.110000000    -0.723000000
H    -2.283000000    -0.262000000    -1.180000000
C    -0.237000000    -0.122000000    -1.564000000
C    -0.295000000    -0.413000000    -3.048000000
O    -1.407000000    -0.574000000    -3.551000000
O     0.746000000    -0.496000000    -3.736000000
