14
-86.06259
C     0.842000000    -0.987000000    -0.658000000
H     1.546000000    -1.740000000    -1.000000000
C     0.921000000    -0.559000000     0.658000000
H     1.719000000    -1.018000000     1.237000000
C     0.015000000     0.312000000     1.138000000
H     0.079000000     0.662000000     2.130000000
C    -1.012000000     0.859000000     0.401000000
H    -1.783000000     1.510000000     0.805000000
C    -1.037000000     0.512000000    -0.984000000
H    -1.743000000     1.067000000    -1.596000000
C    -0.095000000    -0.389000000    -1.536000000
C    -0.158000000    -0.766000000    -2.928000000
O    -0.642000000    -0.032000000    -3.777000000
O     0.386000000    -1.821000000    -3.254000000
