14
-74.68952
C     0.969000000    -0.970000000    -0.497000000
H     1.869000000    -1.516000000    -0.769000000
C     0.900000000    -0.609000000     0.808000000
H     1.717000000    -0.963000000     1.432000000
C    -0.066000000     0.290000000     1.124000000
H    -0.222000000     0.585000000     2.111000000
C    -1.015000000     0.824000000     0.219000000
H    -1.802000000     1.424000000     0.668000000
C    -0.950000000     0.453000000    -1.100000000
H    -1.624000000     0.926000000    -1.810000000
C    -0.002000000    -0.522000000    -1.486000000
C     0.117000000    -0.904000000    -2.893000000
O    -0.549000000    -0.448000000    -3.800000000
O     1.030000000    -1.618000000    -3.227000000
