14
-86.34179
C    -1.475000000     0.257000000    -0.147000000
H    -2.539000000     0.482000000    -0.117000000
C    -0.885000000    -0.727000000     0.625000000
H    -1.508000000    -1.486000000     1.093000000
C     0.496000000    -0.872000000     0.681000000
H     0.907000000    -1.619000000     1.226000000
C     1.282000000    -0.098000000    -0.107000000
H     2.343000000    -0.308000000    -0.005000000
C     0.761000000     0.973000000    -0.824000000
H     1.468000000     1.580000000    -1.383000000
C    -0.655000000     1.144000000    -0.900000000
C    -1.165000000     2.366000000    -1.616000000
O    -0.520000000     3.388000000    -1.611000000
O    -2.361000000     2.365000000    -1.993000000
