14
-88.80697
C     0.369000000    -1.355000000    -0.539000000
H     0.716000000    -2.336000000    -0.850000000
C     0.995000000    -0.693000000     0.520000000
H     1.857000000    -1.090000000     1.050000000
C     0.580000000     0.557000000     0.905000000
H     1.200000000     1.064000000     1.550000000
C    -0.477000000     1.113000000     0.306000000
H    -0.844000000     2.056000000     0.702000000
C    -1.069000000     0.570000000    -0.823000000
H    -1.882000000     1.159000000    -1.241000000
C    -0.727000000    -0.730000000    -1.196000000
C    -1.398000000    -1.397000000    -2.417000000
O    -2.186000000    -0.690000000    -3.045000000
O    -1.154000000    -2.582000000    -2.709000000
