14
-87.99358
C     0.018000000    -1.311000000    -0.615000000
H     0.002000000    -2.340000000    -0.968000000
C     0.391000000    -1.025000000     0.731000000
H     0.667000000    -1.903000000     1.309000000
C     0.353000000     0.309000000     1.187000000
H     0.654000000     0.516000000     2.242000000
C     0.001000000     1.308000000     0.293000000
H     0.031000000     2.349000000     0.606000000
C    -0.485000000     1.019000000    -0.973000000
H    -0.811000000     1.724000000    -1.733000000
C    -0.471000000    -0.325000000    -1.472000000
C    -1.042000000    -0.666000000    -2.826000000
O    -1.509000000     0.219000000    -3.464000000
O    -1.008000000    -1.802000000    -3.252000000
