14
-85.38883
C    -0.507000000    -1.382000000     0.035000000
H    -0.700000000    -2.434000000     0.229000000
C     0.231000000    -0.745000000     1.107000000
H     0.522000000    -1.314000000     1.987000000
C     0.579000000     0.590000000     0.948000000
H     1.119000000     1.200000000     1.683000000
C     0.089000000     1.297000000    -0.155000000
H     0.295000000     2.359000000    -0.265000000
C    -0.626000000     0.669000000    -1.199000000
H    -0.863000000     1.143000000    -2.148000000
C    -0.933000000    -0.734000000    -1.160000000
C    -1.469000000    -1.457000000    -2.342000000
O    -2.006000000    -0.865000000    -3.261000000
O    -1.214000000    -2.660000000    -2.526000000
