14
-89.29641
C     0.235000000     0.238000000    -1.474000000
H     0.542000000     0.364000000    -2.509000000
C     1.234000000    -0.183000000    -0.526000000
H     2.274000000    -0.260000000    -0.831000000
C     0.859000000    -0.381000000     0.768000000
H     1.533000000    -0.706000000     1.496000000
C    -0.454000000    -0.219000000     1.167000000
H    -0.663000000    -0.364000000     2.224000000
C    -1.440000000     0.252000000     0.288000000
H    -2.446000000     0.357000000     0.685000000
C    -1.107000000     0.448000000    -1.067000000
C    -2.137000000     0.882000000    -2.035000000
O    -3.024000000     1.560000000    -1.593000000
O    -1.966000000     0.607000000    -3.202000000
