14
-76.76070
C    -0.743000000     0.812000000     0.959000000
H    -1.074000000     1.401000000     1.811000000
C     0.123000000    -0.260000000     1.211000000
H     0.456000000    -0.471000000     2.224000000
C     0.773000000    -0.990000000     0.224000000
H     1.424000000    -1.814000000     0.508000000
C     0.527000000    -0.625000000    -1.067000000
H     0.921000000    -1.291000000    -1.831000000
C    -0.347000000     0.401000000    -1.389000000
H    -0.533000000     0.680000000    -2.423000000
C    -1.041000000     1.142000000    -0.365000000
C    -1.991000000     2.321000000    -0.640000000
O    -2.111000000     2.758000000    -1.737000000
O    -2.476000000     2.973000000     0.225000000
