14
-88.91582
C     1.150000000     0.404000000    -0.788000000
H     2.090000000     0.721000000    -1.232000000
C     1.142000000    -0.574000000     0.141000000
H     2.050000000    -1.136000000     0.345000000
C    -0.022000000    -0.847000000     0.844000000
H    -0.046000000    -1.539000000     1.700000000
C    -1.156000000    -0.135000000     0.538000000
H    -2.056000000    -0.411000000     1.082000000
C    -1.209000000     0.716000000    -0.539000000
H    -2.190000000     1.091000000    -0.821000000
C    -0.027000000     1.081000000    -1.160000000
C     0.076000000     2.295000000    -2.094000000
O    -0.955000000     2.628000000    -2.677000000
O     1.127000000     2.831000000    -2.282000000
