14
-84.99910
C     1.271000000     0.145000000    -0.777000000
H     2.262000000     0.358000000    -1.170000000
C     1.162000000    -0.516000000     0.476000000
H     2.063000000    -0.923000000     0.928000000
C    -0.094000000    -0.587000000     1.078000000
H    -0.177000000    -1.037000000     2.125000000
C    -1.180000000    -0.064000000     0.447000000
H    -2.200000000    -0.139000000     0.815000000
C    -1.074000000     0.513000000    -0.786000000
H    -1.992000000     0.701000000    -1.337000000
C     0.141000000     0.674000000    -1.425000000
C     0.243000000     1.433000000    -2.702000000
O    -0.826000000     1.649000000    -3.238000000
O     1.268000000     1.692000000    -3.279000000
