14
-77.73587
C    -0.034000000     1.052000000     1.021000000
H    -0.103000000     1.725000000     1.871000000
C     0.267000000    -0.302000000     1.261000000
H     0.583000000    -0.652000000     2.241000000
C     0.277000000    -1.160000000     0.205000000
H     0.532000000    -2.247000000     0.375000000
C     0.050000000    -0.702000000    -1.054000000
H     0.070000000    -1.375000000    -1.907000000
C    -0.331000000     0.635000000    -1.332000000
H    -0.556000000     1.067000000    -2.304000000
C    -0.394000000     1.518000000    -0.289000000
C    -0.815000000     2.922000000    -0.474000000
O    -0.977000000     3.338000000    -1.578000000
O    -0.887000000     3.695000000     0.416000000
