14
-85.29786
C     1.164000000     0.392000000     0.867000000
H     2.069000000     0.421000000     1.468000000
C     0.357000000    -0.758000000     0.990000000
H     0.564000000    -1.520000000     1.736000000
C    -0.744000000    -0.954000000     0.178000000
H    -1.369000000    -1.836000000     0.241000000
C    -1.093000000     0.041000000    -0.708000000
H    -2.017000000    -0.127000000    -1.255000000
C    -0.273000000     1.087000000    -0.880000000
H    -0.451000000     1.840000000    -1.643000000
C     0.891000000     1.343000000    -0.066000000
C     1.804000000     2.444000000    -0.410000000
O     1.447000000     3.383000000    -1.090000000
O     2.963000000     2.389000000    -0.052000000
