14
-87.82501
C     1.120000000    -0.510000000     0.750000000
H     1.899000000    -0.985000000     1.341000000
C    -0.190000000    -0.757000000     1.093000000
H    -0.358000000    -1.460000000     1.906000000
C    -1.194000000    -0.237000000     0.265000000
H    -2.300000000    -0.481000000     0.392000000
C    -0.839000000     0.662000000    -0.758000000
H    -1.649000000     1.095000000    -1.340000000
C     0.474000000     0.936000000    -1.038000000
H     0.677000000     1.646000000    -1.835000000
C     1.476000000     0.296000000    -0.325000000
C     2.922000000     0.643000000    -0.601000000
O     3.186000000     1.163000000    -1.693000000
O     3.828000000     0.385000000     0.134000000
