14
-90.99571
C    -0.116000000     1.118000000    -0.906000000
H    -0.206000000     2.033000000    -1.486000000
C     0.357000000     1.161000000     0.373000000
H     0.741000000     2.088000000     0.791000000
C     0.419000000     0.036000000     1.172000000
H     0.916000000     0.006000000     2.140000000
C     0.024000000    -1.220000000     0.598000000
H     0.207000000    -2.133000000     1.158000000
C    -0.436000000    -1.265000000    -0.741000000
H    -0.759000000    -2.182000000    -1.226000000
C    -0.500000000    -0.103000000    -1.511000000
C    -1.081000000    -0.048000000    -2.867000000
O    -1.461000000    -1.110000000    -3.339000000
O    -1.292000000     1.017000000    -3.450000000
