14
-88.86446
C     0.557000000     1.129000000    -0.711000000
H     0.788000000     2.079000000    -1.187000000
C     0.526000000     1.024000000     0.663000000
H     0.712000000     1.887000000     1.298000000
C     0.040000000    -0.120000000     1.252000000
H     0.026000000    -0.267000000     2.280000000
C    -0.394000000    -1.178000000     0.452000000
H    -0.732000000    -2.075000000     0.964000000
C    -0.337000000    -1.048000000    -0.951000000
H    -0.725000000    -1.869000000    -1.548000000
C     0.084000000     0.132000000    -1.586000000
C     0.229000000     0.194000000    -3.115000000
O    -0.365000000    -0.631000000    -3.775000000
O     0.772000000     1.143000000    -3.632000000
