14
-84.25060
C     0.762000000     0.071000000     1.268000000
H     1.140000000     0.242000000     2.273000000
C    -0.144000000     1.055000000     0.856000000
H    -0.492000000     1.838000000     1.525000000
C    -0.743000000     0.890000000    -0.392000000
H    -1.490000000     1.663000000    -0.678000000
C    -0.568000000    -0.273000000    -1.108000000
H    -1.201000000    -0.452000000    -1.974000000
C     0.364000000    -1.175000000    -0.705000000
H     0.622000000    -2.032000000    -1.321000000
C     1.082000000    -1.063000000     0.495000000
C     2.145000000    -2.073000000     0.878000000
O     2.315000000    -3.038000000     0.187000000
O     2.695000000    -2.055000000     1.968000000
