14
-89.88608
C     1.125000000     0.588000000    -0.682000000
H     1.956000000     1.123000000    -1.134000000
C     0.699000000     0.862000000     0.574000000
H     1.200000000     1.634000000     1.151000000
C    -0.441000000     0.301000000     1.082000000
H    -0.866000000     0.620000000     2.000000000
C    -1.056000000    -0.727000000     0.455000000
H    -1.999000000    -1.111000000     0.836000000
C    -0.502000000    -1.202000000    -0.764000000
H    -0.973000000    -1.997000000    -1.336000000
C     0.601000000    -0.543000000    -1.353000000
C     1.034000000    -0.833000000    -2.806000000
O     0.585000000    -1.788000000    -3.462000000
O     1.843000000    -0.046000000    -3.280000000
