14
-88.42459
C     0.738000000     1.381000000     0.212000000
H     1.373000000     2.219000000     0.486000000
C     0.356000000     0.404000000     1.168000000
H     0.603000000     0.561000000     2.215000000
C    -0.439000000    -0.721000000     0.895000000
H    -0.560000000    -1.495000000     1.675000000
C    -0.689000000    -1.066000000    -0.443000000
H    -1.059000000    -2.063000000    -0.668000000
C    -0.200000000    -0.193000000    -1.407000000
H    -0.292000000    -0.350000000    -2.478000000
C     0.487000000     0.991000000    -1.136000000
C     0.970000000     1.959000000    -2.199000000
O     0.952000000     1.574000000    -3.360000000
O     1.238000000     3.101000000    -1.860000000
