14
-84.48895
C     0.976000000     1.116000000    -0.011000000
H     1.639000000     1.972000000     0.088000000
C     0.624000000     0.393000000     1.116000000
H     0.928000000     0.748000000     2.098000000
C    -0.285000000    -0.629000000     0.967000000
H    -0.744000000    -1.061000000     1.836000000
C    -0.814000000    -1.022000000    -0.266000000
H    -1.474000000    -1.886000000    -0.250000000
C    -0.390000000    -0.374000000    -1.353000000
H    -0.889000000    -0.614000000    -2.288000000
C     0.506000000     0.732000000    -1.282000000
C     0.753000000     1.546000000    -2.497000000
O    -0.116000000     1.555000000    -3.358000000
O     1.693000000     2.324000000    -2.661000000
