14
-85.08233
C     0.090000000    -0.213000000     1.512000000
H     0.346000000    -0.319000000     2.564000000
C     0.268000000    -1.215000000     0.564000000
H     0.659000000    -2.211000000     0.760000000
C     0.187000000    -0.899000000    -0.817000000
H     0.475000000    -1.729000000    -1.535000000
C    -0.329000000     0.297000000    -1.182000000
H    -0.460000000     0.490000000    -2.244000000
C    -0.596000000     1.299000000    -0.270000000
H    -0.993000000     2.222000000    -0.685000000
C    -0.392000000     1.076000000     1.120000000
C    -0.500000000     2.298000000     2.032000000
O    -1.326000000     3.128000000     1.862000000
O     0.226000000     2.324000000     3.080000000
