14
-84.32452
C     0.377000000     0.626000000    -1.287000000
H     0.773000000     1.117000000    -2.173000000
C     1.172000000     0.425000000    -0.129000000
H     2.215000000     0.720000000    -0.200000000
C     0.731000000    -0.257000000     0.989000000
H     1.388000000    -0.494000000     1.866000000
C    -0.616000000    -0.612000000     1.007000000
H    -0.982000000    -1.154000000     1.876000000
C    -1.444000000    -0.426000000    -0.082000000
H    -2.501000000    -0.672000000    -0.020000000
C    -1.021000000     0.346000000    -1.160000000
C    -2.009000000     0.757000000    -2.269000000
O    -3.105000000     1.164000000    -1.937000000
O    -1.550000000     1.102000000    -3.354000000
