14
-86.63042
C     0.802000000     0.609000000    -1.156000000
H     1.539000000     1.048000000    -1.824000000
C     1.307000000     0.040000000     0.014000000
H     2.391000000     0.086000000     0.085000000
C     0.489000000    -0.490000000     1.011000000
H     0.889000000    -0.930000000     1.909000000
C    -0.886000000    -0.525000000     0.841000000
H    -1.545000000    -1.038000000     1.536000000
C    -1.410000000    -0.028000000    -0.322000000
H    -2.488000000    -0.110000000    -0.435000000
C    -0.580000000     0.627000000    -1.313000000
C    -1.238000000     1.093000000    -2.589000000
O    -2.443000000     1.179000000    -2.624000000
O    -0.603000000     1.073000000    -3.641000000
