14
-85.49763
C    -0.203000000     0.367000000    -1.435000000
H    -0.225000000     0.639000000    -2.487000000
C     1.007000000     0.147000000    -0.777000000
H     1.919000000     0.346000000    -1.334000000
C     1.096000000    -0.236000000     0.574000000
H     2.050000000    -0.594000000     0.985000000
C    -0.148000000    -0.364000000     1.312000000
H    -0.236000000    -0.691000000     2.345000000
C    -1.361000000    -0.165000000     0.653000000
H    -2.263000000    -0.355000000     1.230000000
C    -1.365000000     0.219000000    -0.731000000
C    -2.641000000     0.527000000    -1.442000000
O    -3.774000000     0.323000000    -0.944000000
O    -2.644000000     1.081000000    -2.519000000
