14
-78.73004
C     0.260000000    -0.018000000    -1.500000000
H     0.544000000    -0.134000000    -2.543000000
C     1.263000000     0.096000000    -0.483000000
H     2.293000000     0.075000000    -0.829000000
C     0.932000000     0.028000000     0.857000000
H     1.731000000    -0.197000000     1.559000000
C    -0.397000000     0.016000000     1.213000000
H    -0.624000000     0.026000000     2.276000000
C    -1.396000000     0.081000000     0.213000000
H    -2.394000000     0.113000000     0.642000000
C    -1.053000000    -0.064000000    -1.135000000
C    -2.195000000    -0.118000000    -2.105000000
O    -3.307000000     0.000000000    -1.741000000
O    -2.024000000    -0.149000000    -3.312000000
