14
-71.25040
C    -0.153000000    -0.049000000    -1.500000000
H    -0.165000000    -0.057000000    -2.587000000
C     1.057000000    -0.313000000    -0.802000000
H     1.988000000    -0.573000000    -1.299000000
C     1.044000000    -0.271000000     0.664000000
H     1.997000000    -0.416000000     1.114000000
C    -0.135000000     0.155000000     1.313000000
H    -0.263000000     0.377000000     2.370000000
C    -1.175000000     0.487000000     0.548000000
H    -2.052000000     0.900000000     1.038000000
C    -1.350000000     0.219000000    -0.797000000
C    -2.633000000     0.327000000    -1.587000000
O    -3.678000000     0.364000000    -1.037000000
O    -2.580000000     0.688000000    -2.731000000
