14
-91.91788
C    -1.037000000    -0.907000000    -0.353000000
H    -1.740000000    -1.678000000    -0.659000000
C     0.291000000    -1.235000000    -0.278000000
H     0.712000000    -2.207000000    -0.519000000
C     1.197000000    -0.218000000    -0.031000000
H     2.248000000    -0.468000000    -0.032000000
C     0.754000000     1.040000000     0.344000000
H     1.530000000     1.707000000     0.710000000
C    -0.607000000     1.309000000     0.387000000
H    -0.967000000     2.242000000     0.814000000
C    -1.522000000     0.361000000     0.016000000
C    -3.037000000     0.672000000    -0.066000000
O    -3.522000000     1.678000000     0.474000000
O    -3.774000000    -0.058000000    -0.752000000
