14
-89.34135
C    -0.609000000    -1.190000000    -0.580000000
H    -1.076000000    -1.997000000    -1.139000000
C     0.174000000    -0.261000000    -1.298000000
H     0.436000000    -0.357000000    -2.348000000
C     0.724000000     0.816000000    -0.577000000
H     1.298000000     1.499000000    -1.105000000
C     0.493000000     0.919000000     0.806000000
H     0.828000000     1.784000000     1.373000000
C    -0.334000000     0.010000000     1.428000000
H    -0.479000000     0.145000000     2.497000000
C    -0.943000000    -0.979000000     0.731000000
C    -1.808000000    -2.060000000     1.445000000
O    -2.273000000    -1.750000000     2.500000000
O    -2.072000000    -3.071000000     0.823000000
