14
-83.19661
C     0.017000000    -1.425000000    -0.249000000
H     0.129000000    -2.448000000    -0.598000000
C     0.679000000    -0.450000000    -1.015000000
H     1.384000000    -0.669000000    -1.812000000
C     0.578000000     0.878000000    -0.637000000
H     1.211000000     1.579000000    -1.157000000
C    -0.320000000     1.276000000     0.333000000
H    -0.389000000     2.311000000     0.657000000
C    -1.042000000     0.322000000     1.013000000
H    -1.654000000     0.701000000     1.827000000
C    -0.899000000    -1.039000000     0.711000000
C    -1.675000000    -2.062000000     1.452000000
O    -2.447000000    -1.809000000     2.342000000
O    -1.533000000    -3.193000000     1.119000000
