14
-86.67880
C    -0.262000000    -1.374000000     0.334000000
H    -0.648000000    -2.385000000     0.438000000
C     0.315000000    -0.981000000    -0.848000000
H     0.592000000    -1.715000000    -1.600000000
C     0.572000000     0.381000000    -1.037000000
H     1.153000000     0.741000000    -1.924000000
C     0.224000000     1.242000000    -0.033000000
H     0.364000000     2.304000000    -0.216000000
C    -0.380000000     0.826000000     1.126000000
H    -0.660000000     1.637000000     1.793000000
C    -0.708000000    -0.511000000     1.340000000
C    -1.427000000    -0.978000000     2.564000000
O    -1.198000000    -0.390000000     3.582000000
O    -2.175000000    -1.942000000     2.531000000
