14
-87.28688
C    -0.791000000    -0.994000000     0.722000000
H    -1.352000000    -1.813000000     1.165000000
C    -0.229000000    -1.148000000    -0.577000000
H    -0.325000000    -2.068000000    -1.148000000
C     0.474000000    -0.077000000    -1.155000000
H     1.011000000    -0.184000000    -2.134000000
C     0.564000000     1.161000000    -0.434000000
H     1.175000000     1.971000000    -0.826000000
C     0.005000000     1.244000000     0.846000000
H     0.107000000     2.192000000     1.368000000
C    -0.730000000     0.189000000     1.424000000
C    -1.160000000     0.287000000     2.864000000
O    -0.694000000     1.206000000     3.536000000
O    -1.562000000    -0.729000000     3.360000000
