14
-81.76272
C    -0.909000000    -0.909000000     0.594000000
H    -1.471000000    -1.735000000     1.022000000
C    -0.248000000    -1.101000000    -0.612000000
H    -0.211000000    -2.077000000    -1.088000000
C     0.594000000    -0.184000000    -1.083000000
H     1.138000000    -0.328000000    -2.050000000
C     0.843000000     0.952000000    -0.335000000
H     1.521000000     1.741000000    -0.651000000
C     0.200000000     1.199000000     0.869000000
H     0.317000000     2.081000000     1.494000000
C    -0.771000000     0.276000000     1.301000000
C    -1.628000000     0.473000000     2.557000000
O    -1.213000000     1.179000000     3.433000000
O    -2.635000000    -0.162000000     2.789000000
