14
-77.31382
C    -0.200000000    -1.327000000     0.717000000
H    -0.272000000    -2.315000000     1.164000000
C     0.853000000    -0.972000000    -0.074000000
H     1.697000000    -1.625000000    -0.276000000
C     0.985000000     0.302000000    -0.565000000
H     1.951000000     0.568000000    -1.112000000
C    -0.037000000     1.248000000    -0.411000000
H     0.017000000     2.142000000    -1.028000000
C    -1.186000000     0.912000000     0.256000000
H    -1.978000000     1.657000000     0.256000000
C    -1.249000000    -0.346000000     0.877000000
C    -2.468000000    -0.688000000     1.662000000
O    -3.270000000     0.110000000     1.955000000
O    -2.559000000    -1.787000000     2.212000000
