14
-88.79497
C     0.172000000    -0.954000000     1.162000000
H     0.483000000    -1.560000000     2.010000000
C     0.665000000    -1.151000000    -0.154000000
H     1.436000000    -1.885000000    -0.377000000
C     0.283000000    -0.299000000    -1.169000000
H     0.627000000    -0.441000000    -2.166000000
C    -0.562000000     0.735000000    -0.868000000
H    -0.782000000     1.431000000    -1.673000000
C    -1.041000000     0.964000000     0.364000000
H    -1.600000000     1.886000000     0.500000000
C    -0.636000000     0.159000000     1.439000000
C    -0.982000000     0.656000000     2.843000000
O    -1.651000000     1.651000000     3.058000000
O    -0.634000000    -0.105000000     3.740000000
