14
-88.48979
C    -0.190000000    -1.441000000     0.460000000
H    -0.379000000    -2.490000000     0.672000000
C    -0.770000000    -0.873000000    -0.629000000
H    -1.448000000    -1.446000000    -1.256000000
C    -0.506000000     0.470000000    -1.058000000
H    -1.021000000     1.008000000    -1.870000000
C     0.392000000     1.229000000    -0.313000000
H     0.560000000     2.278000000    -0.545000000
C     0.985000000     0.627000000     0.809000000
H     1.720000000     1.204000000     1.365000000
C     0.763000000    -0.720000000     1.188000000
C     1.383000000    -1.235000000     2.443000000
O     1.750000000    -0.465000000     3.330000000
O     1.375000000    -2.421000000     2.611000000
