14
-90.10387
C    -0.998000000     0.514000000     0.888000000
H    -1.838000000     0.897000000     1.462000000
C    -0.982000000    -0.752000000     0.286000000
H    -1.801000000    -1.463000000     0.360000000
C     0.106000000    -1.152000000    -0.472000000
H     0.220000000    -2.226000000    -0.764000000
C     1.138000000    -0.280000000    -0.661000000
H     2.009000000    -0.650000000    -1.197000000
C     1.125000000     1.011000000    -0.061000000
H     1.928000000     1.697000000    -0.317000000
C     0.044000000     1.412000000     0.719000000
C    -0.034000000     2.795000000     1.298000000
O     0.735000000     3.726000000     0.931000000
O    -1.052000000     3.100000000     1.936000000
