14
-91.30288
C    -0.297000000    -1.042000000     0.993000000
H    -0.577000000    -1.874000000     1.635000000
C    -0.639000000    -1.111000000    -0.351000000
H    -1.172000000    -1.975000000    -0.739000000
C    -0.354000000    -0.019000000    -1.165000000
H    -0.831000000     0.078000000    -2.184000000
C     0.399000000     1.084000000    -0.669000000
H     0.598000000     1.868000000    -1.395000000
C     0.836000000     1.101000000     0.632000000
H     1.273000000     1.979000000     1.101000000
C     0.553000000    -0.035000000     1.463000000
C     1.083000000    -0.127000000     2.936000000
O     1.365000000     0.959000000     3.458000000
O     1.017000000    -1.190000000     3.478000000
