14
-87.02133
C    -0.552000000    -0.686000000     1.252000000
H    -1.027000000    -1.193000000     2.088000000
C    -0.749000000    -1.118000000    -0.085000000
H    -1.452000000    -1.946000000    -0.116000000
C    -0.099000000    -0.427000000    -1.119000000
H    -0.270000000    -0.750000000    -2.161000000
C     0.490000000     0.834000000    -0.920000000
H     0.933000000     1.244000000    -1.824000000
C     0.561000000     1.389000000     0.347000000
H     0.993000000     2.363000000     0.565000000
C     0.088000000     0.575000000     1.429000000
C     0.374000000     0.986000000     2.869000000
O     0.910000000     2.065000000     3.048000000
O    -0.046000000     0.318000000     3.813000000
