14
-87.93652
C    -0.856000000    -0.651000000     1.032000000
H    -1.546000000    -1.101000000     1.741000000
C    -0.632000000    -1.169000000    -0.235000000
H    -1.121000000    -2.089000000    -0.544000000
C     0.130000000    -0.449000000    -1.138000000
H     0.216000000    -0.835000000    -2.111000000
C     0.782000000     0.762000000    -0.707000000
H     1.427000000     1.269000000    -1.420000000
C     0.545000000     1.286000000     0.526000000
H     1.063000000     2.206000000     0.782000000
C    -0.263000000     0.564000000     1.437000000
C    -0.355000000     0.966000000     2.895000000
O     0.164000000     1.955000000     3.349000000
O    -1.078000000     0.309000000     3.693000000
