14
-90.75163
C    -0.898000000    -0.580000000     1.030000000
H    -1.475000000    -1.132000000     1.768000000
C    -0.637000000    -1.173000000    -0.168000000
H    -0.968000000    -2.191000000    -0.357000000
C     0.291000000    -0.536000000    -1.065000000
H     0.491000000    -1.075000000    -1.974000000
C     0.827000000     0.722000000    -0.785000000
H     1.535000000     1.190000000    -1.463000000
C     0.468000000     1.379000000     0.427000000
H     0.940000000     2.332000000     0.650000000
C    -0.453000000     0.714000000     1.347000000
C    -0.791000000     1.382000000     2.679000000
O    -0.564000000     2.570000000     2.847000000
O    -1.337000000     0.700000000     3.537000000
