14
-86.90683
C    -0.805000000    -0.692000000     1.085000000
H    -1.441000000    -1.316000000     1.706000000
C    -0.447000000    -1.233000000    -0.188000000
H    -0.831000000    -2.196000000    -0.514000000
C     0.341000000    -0.491000000    -1.066000000
H     0.537000000    -0.929000000    -2.067000000
C     0.736000000     0.766000000    -0.752000000
H     1.356000000     1.397000000    -1.384000000
C     0.237000000     1.381000000     0.425000000
H     0.638000000     2.359000000     0.681000000
C    -0.548000000     0.664000000     1.331000000
C    -0.951000000     1.296000000     2.634000000
O    -0.666000000     2.448000000     2.903000000
O    -1.408000000     0.602000000     3.539000000
