14
-82.76299
C    -1.048000000    -0.387000000     0.998000000
H    -1.753000000    -0.793000000     1.719000000
C    -0.783000000    -1.081000000    -0.126000000
H    -1.301000000    -2.021000000    -0.298000000
C     0.114000000    -0.587000000    -1.034000000
H     0.403000000    -1.100000000    -1.962000000
C     0.781000000     0.592000000    -0.808000000
H     1.423000000     0.903000000    -1.628000000
C     0.669000000     1.262000000     0.371000000
H     1.200000000     2.203000000     0.490000000
C    -0.252000000     0.770000000     1.312000000
C    -0.393000000     1.459000000     2.715000000
O     0.178000000     2.520000000     2.967000000
O    -0.818000000     0.840000000     3.690000000
