14
-85.94575
C    -0.333000000    -0.128000000     1.395000000
H    -0.610000000    -0.370000000     2.418000000
C    -1.069000000    -0.681000000     0.343000000
H    -2.043000000    -1.162000000     0.379000000
C    -0.685000000    -0.475000000    -0.942000000
H    -1.256000000    -0.912000000    -1.717000000
C     0.564000000     0.124000000    -1.129000000
H     0.974000000     0.172000000    -2.134000000
C     1.227000000     0.745000000    -0.092000000
H     2.139000000     1.313000000    -0.257000000
C     0.796000000     0.648000000     1.240000000
C     1.597000000     1.298000000     2.359000000
O     2.400000000     2.156000000     2.080000000
O     1.335000000     1.046000000     3.522000000
