14
-83.27998
C     0.328000000    -1.228000000     0.691000000
H     0.383000000    -2.255000000     1.043000000
C    -0.362000000    -1.109000000    -0.536000000
H    -0.930000000    -1.968000000    -0.886000000
C    -0.513000000     0.118000000    -1.125000000
H    -1.229000000     0.235000000    -1.965000000
C     0.055000000     1.236000000    -0.542000000
H    -0.268000000     2.198000000    -0.933000000
C     0.752000000     1.103000000     0.668000000
H     1.076000000     1.987000000     1.211000000
C     0.902000000    -0.117000000     1.313000000
C     1.617000000    -0.322000000     2.648000000
O     2.119000000     0.608000000     3.194000000
O     1.608000000    -1.385000000     3.217000000
