14
-80.06584
C    -1.041000000     0.999000000    -0.037000000
H    -1.863000000     1.709000000    -0.072000000
C    -1.353000000    -0.316000000    -0.143000000
H    -2.338000000    -0.751000000    -0.290000000
C    -0.255000000    -1.166000000    -0.043000000
H    -0.349000000    -2.265000000     0.002000000
C     1.043000000    -0.692000000     0.100000000
H     1.857000000    -1.412000000     0.116000000
C     1.379000000     0.612000000     0.286000000
H     2.412000000     0.945000000     0.342000000
C     0.312000000     1.500000000     0.107000000
C     0.535000000     2.980000000    -0.043000000
O     1.598000000     3.478000000     0.213000000
O    -0.439000000     3.728000000    -0.123000000
