14
-66.82479
C     0.723000000    -1.028000000     0.549000000
H     1.099000000    -1.958000000     0.969000000
C     0.273000000    -1.049000000    -0.787000000
H     0.462000000    -1.909000000    -1.425000000
C    -0.346000000     0.051000000    -1.175000000
H    -0.799000000     0.077000000    -2.158000000
C    -0.529000000     1.205000000    -0.329000000
H    -1.137000000     2.070000000    -0.585000000
C    -0.070000000     1.170000000     0.977000000
H    -0.316000000     2.014000000     1.616000000
C     0.588000000     0.010000000     1.416000000
C     1.069000000    -0.139000000     2.912000000
O     0.431000000     0.292000000     3.831000000
O     1.841000000    -0.969000000     3.287000000
