14
-87.99742
C     0.066000000    -1.229000000     0.750000000
H    -0.062000000    -2.211000000     1.199000000
C    -0.156000000    -1.222000000    -0.666000000
H    -0.400000000    -2.190000000    -1.095000000
C    -0.155000000     0.030000000    -1.208000000
H    -0.484000000     0.149000000    -2.213000000
C     0.082000000     1.186000000    -0.440000000
H     0.094000000     2.155000000    -0.931000000
C     0.285000000     1.152000000     0.891000000
H     0.616000000     2.011000000     1.468000000
C     0.309000000    -0.102000000     1.517000000
C     0.418000000    -0.179000000     3.031000000
O     0.441000000     0.863000000     3.635000000
O     0.574000000    -1.279000000     3.596000000
