14
-83.15677
C     0.294000000    -1.327000000     0.694000000
H     0.638000000    -2.286000000     1.072000000
C     0.045000000    -1.132000000    -0.711000000
H     0.152000000    -1.900000000    -1.473000000
C    -0.346000000     0.157000000    -1.180000000
H    -0.616000000     0.281000000    -2.269000000
C    -0.439000000     1.227000000    -0.292000000
H    -0.566000000     2.234000000    -0.679000000
C    -0.050000000     1.033000000     1.027000000
H     0.187000000     1.920000000     1.609000000
C     0.214000000    -0.214000000     1.540000000
C     0.665000000    -0.413000000     3.042000000
O     0.423000000     0.459000000     3.865000000
O     1.228000000    -1.386000000     3.392000000
