14
-83.18249
C     0.478000000    -0.894000000     0.941000000
H     0.882000000    -1.707000000     1.538000000
C    -0.063000000    -1.243000000    -0.294000000
H    -0.265000000    -2.274000000    -0.573000000
C    -0.490000000    -0.203000000    -1.060000000
H    -0.970000000    -0.502000000    -1.957000000
C    -0.344000000     1.165000000    -0.697000000
H    -0.822000000     1.903000000    -1.337000000
C     0.236000000     1.420000000     0.499000000
H     0.357000000     2.470000000     0.750000000
C     0.671000000     0.410000000     1.376000000
C     1.462000000     0.613000000     2.609000000
O     0.976000000     1.361000000     3.424000000
O     2.441000000    -0.086000000     2.947000000
