14
-87.56810
C     0.159000000    -1.012000000     1.002000000
H     0.340000000    -1.849000000     1.672000000
C    -0.355000000    -1.241000000    -0.241000000
H    -0.544000000    -2.256000000    -0.582000000
C    -0.461000000    -0.174000000    -1.113000000
H    -0.765000000    -0.405000000    -2.126000000
C    -0.134000000     1.086000000    -0.748000000
H    -0.170000000     1.921000000    -1.443000000
C     0.356000000     1.263000000     0.532000000
H     0.597000000     2.290000000     0.794000000
C     0.526000000     0.241000000     1.458000000
C     1.010000000     0.526000000     2.858000000
O     0.950000000     1.633000000     3.404000000
O     1.385000000    -0.415000000     3.585000000
