14
-71.78203
C     0.572000000    -0.292000000     1.308000000
H     1.045000000    -0.614000000     2.232000000
C     0.045000000    -1.223000000     0.415000000
H     0.157000000    -2.286000000     0.610000000
C    -0.436000000    -0.846000000    -0.833000000
H    -0.867000000    -1.636000000    -1.398000000
C    -0.444000000     0.532000000    -1.153000000
H    -0.850000000     0.843000000    -2.112000000
C    -0.108000000     1.466000000    -0.218000000
H    -0.298000000     2.507000000    -0.463000000
C     0.477000000     1.102000000     1.072000000
C     1.044000000     2.074000000     2.131000000
O     0.960000000     3.262000000     1.937000000
O     1.715000000     1.810000000     3.057000000
