14
-77.85281
C     1.277000000     0.225000000     0.746000000
H     2.207000000     0.160000000     1.305000000
C     0.825000000    -0.986000000     0.216000000
H     1.328000000    -1.945000000     0.308000000
C    -0.284000000    -1.072000000    -0.599000000
H    -0.477000000    -1.958000000    -1.220000000
C    -1.056000000     0.078000000    -0.794000000
H    -1.986000000     0.021000000    -1.353000000
C    -0.600000000     1.321000000    -0.241000000
H    -1.156000000     2.239000000    -0.415000000
C     0.550000000     1.385000000     0.569000000
C     0.860000000     2.679000000     1.317000000
O    -0.077000000     3.393000000     1.593000000
O     1.843000000     2.802000000     1.952000000
