14
-85.45550
C     1.076000000    -0.507000000     0.925000000
H     1.809000000    -1.040000000     1.525000000
C     0.265000000    -1.261000000     0.052000000
H     0.450000000    -2.313000000    -0.144000000
C    -0.742000000    -0.702000000    -0.746000000
H    -1.456000000    -1.286000000    -1.333000000
C    -0.946000000     0.654000000    -0.594000000
H    -1.736000000     1.133000000    -1.166000000
C    -0.139000000     1.466000000     0.256000000
H    -0.225000000     2.546000000     0.342000000
C     0.893000000     0.895000000     0.978000000
C     1.716000000     1.716000000     1.846000000
O     1.939000000     2.862000000     1.530000000
O     2.254000000     1.209000000     2.790000000
