14
-88.72922
C     0.729000000    -1.185000000     0.301000000
H     1.057000000    -2.200000000     0.512000000
C    -0.580000000    -1.092000000    -0.208000000
H    -1.166000000    -2.004000000    -0.282000000
C    -1.156000000     0.178000000    -0.397000000
H    -2.221000000     0.328000000    -0.641000000
C    -0.391000000     1.342000000    -0.258000000
H    -0.810000000     2.336000000    -0.396000000
C     0.931000000     1.201000000     0.149000000
H     1.552000000     2.053000000     0.413000000
C     1.480000000    -0.022000000     0.436000000
C     2.829000000    -0.242000000     1.078000000
O     3.601000000     0.626000000     1.376000000
O     3.170000000    -1.457000000     1.291000000
