14
-87.82563
C     0.700000000    -1.195000000     0.531000000
H     1.222000000    -2.112000000     0.791000000
C    -0.179000000    -1.171000000    -0.547000000
H    -0.321000000    -2.036000000    -1.190000000
C    -0.848000000    -0.001000000    -0.881000000
H    -1.462000000    -0.012000000    -1.785000000
C    -0.596000000     1.178000000    -0.209000000
H    -1.027000000     2.135000000    -0.494000000
C     0.316000000     1.184000000     0.865000000
H     0.613000000     2.098000000     1.374000000
C     0.882000000    -0.059000000     1.283000000
C     1.874000000    -0.222000000     2.387000000
O     2.614000000     0.738000000     2.632000000
O     2.141000000    -1.279000000     2.913000000
