14
-87.86466
C     0.465000000    -1.321000000     0.424000000
H     0.764000000    -2.337000000     0.666000000
C    -0.478000000    -1.069000000    -0.619000000
H    -0.855000000    -1.870000000    -1.249000000
C    -0.883000000     0.247000000    -0.853000000
H    -1.584000000     0.457000000    -1.662000000
C    -0.479000000     1.333000000    -0.035000000
H    -0.843000000     2.331000000    -0.262000000
C     0.487000000     1.031000000     0.934000000
H     0.912000000     1.923000000     1.387000000
C     0.953000000    -0.265000000     1.231000000
C     2.053000000    -0.511000000     2.262000000
O     2.582000000     0.405000000     2.795000000
O     2.338000000    -1.659000000     2.592000000
