14
-83.10916
C     0.371000000    -1.088000000     0.899000000
H     0.556000000    -1.999000000     1.463000000
C    -0.577000000    -1.156000000    -0.123000000
H    -1.184000000    -2.046000000    -0.267000000
C    -0.769000000    -0.066000000    -0.985000000
H    -1.352000000    -0.195000000    -1.790000000
C    -0.212000000     1.166000000    -0.588000000
H    -0.489000000     1.972000000    -1.263000000
C     0.670000000     1.224000000     0.505000000
H     1.047000000     2.202000000     0.794000000
C     1.075000000     0.058000000     1.180000000
C     2.043000000     0.208000000     2.307000000
O     2.442000000     1.307000000     2.577000000
O     2.404000000    -0.713000000     3.021000000
