14
-87.59648
C    -1.105000000    -1.046000000     0.149000000
H    -1.975000000    -1.699000000     0.146000000
C    -0.970000000    -0.118000000    -0.922000000
H    -1.704000000    -0.102000000    -1.724000000
C     0.133000000     0.726000000    -0.956000000
H     0.321000000     1.387000000    -1.798000000
C     1.002000000     0.781000000     0.082000000
H     1.770000000     1.545000000    -0.013000000
C     0.828000000    -0.007000000     1.219000000
H     1.605000000     0.017000000     1.979000000
C    -0.184000000    -0.995000000     1.203000000
C    -0.244000000    -1.970000000     2.324000000
O     0.311000000    -1.835000000     3.425000000
O    -1.068000000    -2.867000000     2.206000000
