14
-87.61266
C    -0.792000000    -1.219000000     0.060000000
H    -1.497000000    -2.046000000     0.055000000
C    -1.098000000    -0.107000000    -0.731000000
H    -1.978000000    -0.145000000    -1.368000000
C    -0.125000000     0.944000000    -0.806000000
H    -0.298000000     1.803000000    -1.475000000
C     0.965000000     0.893000000    -0.034000000
H     1.577000000     1.790000000    -0.089000000
C     1.203000000    -0.150000000     0.894000000
H     2.130000000    -0.116000000     1.461000000
C     0.334000000    -1.230000000     0.919000000
C     0.449000000    -2.320000000     1.959000000
O     1.193000000    -2.103000000     2.902000000
O    -0.304000000    -3.293000000     2.016000000
