14
-80.70860
C     1.417000000    -0.049000000    -0.542000000
H     2.343000000     0.021000000    -1.107000000
C     0.355000000     0.734000000    -1.020000000
H     0.583000000     1.366000000    -1.876000000
C    -0.883000000     0.726000000    -0.407000000
H    -1.561000000     1.385000000    -0.762000000
C    -1.134000000    -0.169000000     0.639000000
H    -2.108000000    -0.261000000     1.113000000
C    -0.095000000    -0.934000000     1.065000000
H    -0.334000000    -1.633000000     1.863000000
C     1.167000000    -0.936000000     0.489000000
C     2.286000000    -1.657000000     1.209000000
O     2.205000000    -1.950000000     2.352000000
O     3.349000000    -1.827000000     0.653000000
