14
-87.24059
C     1.214000000    -0.872000000    -0.153000000
H     2.085000000    -1.471000000    -0.408000000
C     0.997000000     0.322000000    -0.854000000
H     1.600000000     0.739000000    -1.657000000
C    -0.174000000     1.059000000    -0.587000000
H    -0.461000000     1.876000000    -1.196000000
C    -1.048000000     0.630000000     0.418000000
H    -1.929000000     1.230000000     0.635000000
C    -0.807000000    -0.495000000     1.152000000
H    -1.556000000    -0.898000000     1.828000000
C     0.336000000    -1.269000000     0.876000000
C     0.577000000    -2.592000000     1.543000000
O    -0.226000000    -3.044000000     2.297000000
O     1.619000000    -3.207000000     1.372000000
