14
-84.20721
C     0.690000000    -1.301000000     0.024000000
H     1.312000000    -2.190000000     0.103000000
C     1.172000000    -0.097000000    -0.439000000
H     2.160000000    -0.116000000    -0.892000000
C     0.473000000     1.056000000    -0.439000000
H     0.943000000     1.928000000    -0.927000000
C    -0.821000000     1.012000000     0.080000000
H    -1.457000000     1.890000000    -0.002000000
C    -1.324000000    -0.131000000     0.742000000
H    -2.305000000    -0.129000000     1.210000000
C    -0.549000000    -1.326000000     0.659000000
C    -1.158000000    -2.659000000     1.133000000
O    -2.085000000    -2.628000000     1.862000000
O    -0.485000000    -3.674000000     0.988000000
