14
-86.12470
C    -0.961000000     0.915000000     0.601000000
H    -1.640000000     1.493000000     1.222000000
C    -0.776000000    -0.406000000     0.974000000
H    -1.149000000    -0.857000000     1.890000000
C     0.131000000    -1.133000000     0.275000000
H     0.327000000    -2.166000000     0.639000000
C     0.927000000    -0.579000000    -0.672000000
H     1.583000000    -1.302000000    -1.151000000
C     0.669000000     0.714000000    -1.130000000
H     1.277000000     1.106000000    -1.941000000
C    -0.280000000     1.494000000    -0.485000000
C    -0.589000000     2.940000000    -0.859000000
O    -0.209000000     3.324000000    -1.923000000
O    -1.036000000     3.689000000     0.020000000
