14
-83.47982
C    -0.883000000    -1.086000000    -0.346000000
H    -1.421000000    -1.995000000    -0.604000000
C     0.271000000    -0.744000000    -0.971000000
H     0.565000000    -1.358000000    -1.818000000
C     0.994000000     0.383000000    -0.578000000
H     1.883000000     0.732000000    -1.121000000
C     0.543000000     1.202000000     0.447000000
H     1.035000000     2.141000000     0.689000000
C    -0.579000000     0.699000000     1.179000000
H    -0.798000000     1.278000000     2.072000000
C    -1.203000000    -0.482000000     0.876000000
C    -2.419000000    -0.924000000     1.615000000
O    -2.684000000    -0.396000000     2.678000000
O    -3.040000000    -1.809000000     1.146000000
