14
-86.61882
C    -0.131000000    -1.257000000     0.660000000
H    -0.081000000    -2.289000000     0.998000000
C     0.609000000    -1.086000000    -0.477000000
H     1.183000000    -1.883000000    -0.945000000
C     0.576000000     0.227000000    -1.054000000
H     1.075000000     0.276000000    -2.011000000
C    -0.093000000     1.307000000    -0.432000000
H     0.131000000     2.277000000    -0.870000000
C    -0.767000000     1.094000000     0.765000000
H    -1.298000000     1.911000000     1.248000000
C    -0.822000000    -0.229000000     1.260000000
C    -1.620000000    -0.541000000     2.538000000
O    -2.407000000     0.310000000     2.945000000
O    -1.650000000    -1.649000000     3.083000000
