14
-95.23995
C     0.758000000    -0.570000000     1.120000000
H     1.453000000    -0.928000000     1.876000000
C     1.301000000     0.061000000     0.013000000
H     2.380000000     0.163000000    -0.071000000
C     0.461000000     0.602000000    -0.950000000
H     0.967000000     0.977000000    -1.892000000
C    -0.928000000     0.543000000    -0.801000000
H    -1.597000000     0.966000000    -1.546000000
C    -1.487000000    -0.170000000     0.285000000
H    -2.560000000    -0.340000000     0.339000000
C    -0.629000000    -0.705000000     1.244000000
C    -1.216000000    -1.385000000     2.460000000
O    -2.236000000    -0.927000000     2.978000000
O    -0.614000000    -2.379000000     2.863000000
