14
-84.12458
C    -0.115000000    -0.831000000     1.170000000
H    -0.065000000    -1.395000000     2.098000000
C     0.980000000    -0.821000000     0.323000000
H     1.910000000    -1.375000000     0.418000000
C     0.923000000    -0.012000000    -0.784000000
H     1.657000000    -0.081000000    -1.563000000
C    -0.131000000     0.859000000    -0.968000000
H    -0.117000000     1.519000000    -1.831000000
C    -1.197000000     0.829000000    -0.122000000
H    -2.010000000     1.504000000    -0.379000000
C    -1.246000000    -0.053000000     0.978000000
C    -2.396000000    -0.085000000     2.023000000
O    -2.994000000     0.949000000     2.253000000
O    -2.456000000    -0.975000000     2.859000000
