14
-90.26267
C     0.438000000    -0.403000000     1.370000000
H     0.848000000    -0.694000000     2.334000000
C     1.190000000    -0.618000000     0.174000000
H     2.231000000    -0.907000000     0.295000000
C     0.640000000    -0.230000000    -1.034000000
H     1.126000000    -0.367000000    -1.971000000
C    -0.584000000     0.438000000    -1.081000000
H    -0.967000000     0.743000000    -2.052000000
C    -1.332000000     0.555000000     0.068000000
H    -2.360000000     0.877000000    -0.076000000
C    -0.851000000     0.204000000     1.368000000
C    -1.624000000     0.373000000     2.655000000
O    -2.728000000     0.906000000     2.506000000
O    -1.266000000    -0.075000000     3.765000000
