14
-85.29270
C    -1.398000000    -0.633000000    -0.062000000
H    -2.368000000    -1.062000000    -0.299000000
C    -0.452000000    -0.539000000    -1.111000000
H    -0.688000000    -0.864000000    -2.122000000
C     0.814000000     0.065000000    -0.911000000
H     1.513000000     0.186000000    -1.721000000
C     1.157000000     0.467000000     0.344000000
H     2.125000000     0.905000000     0.574000000
C     0.207000000     0.454000000     1.336000000
H     0.474000000     0.881000000     2.299000000
C    -1.131000000     0.027000000     1.172000000
C    -2.045000000     0.051000000     2.324000000
O    -1.694000000     0.725000000     3.298000000
O    -3.231000000    -0.251000000     2.211000000
