14
-88.35528
C    -0.969000000    -1.127000000     0.021000000
H    -1.622000000    -1.982000000    -0.137000000
C    -0.105000000    -0.791000000    -1.040000000
H    -0.147000000    -1.376000000    -1.954000000
C     0.749000000     0.346000000    -0.892000000
H     1.333000000     0.704000000    -1.732000000
C     0.775000000     1.058000000     0.272000000
H     1.487000000     1.876000000     0.347000000
C     0.018000000     0.617000000     1.349000000
H    -0.005000000     1.163000000     2.289000000
C    -0.889000000    -0.431000000     1.196000000
C    -1.857000000    -0.856000000     2.281000000
O    -1.764000000    -0.328000000     3.379000000
O    -2.586000000    -1.811000000     2.158000000
