14
-90.40325
C    -0.882000000    -1.186000000     0.134000000
H    -1.490000000    -2.077000000     0.272000000
C     0.165000000    -1.087000000    -0.806000000
H     0.176000000    -1.920000000    -1.504000000
C     0.963000000     0.067000000    -0.835000000
H     1.809000000     0.144000000    -1.551000000
C     0.712000000     1.095000000     0.068000000
H     1.295000000     2.012000000     0.081000000
C    -0.423000000     1.060000000     0.861000000
H    -0.570000000     1.874000000     1.566000000
C    -1.220000000    -0.089000000     0.929000000
C    -2.323000000    -0.185000000     2.013000000
O    -2.584000000     0.747000000     2.734000000
O    -2.846000000    -1.276000000     2.211000000
