14
-81.74572
C     1.121000000    -0.738000000    -0.612000000
H     1.905000000    -1.110000000    -1.266000000
C    -0.017000000    -0.231000000    -1.303000000
H    -0.028000000    -0.359000000    -2.383000000
C    -0.971000000     0.403000000    -0.570000000
H    -1.936000000     0.754000000    -1.023000000
C    -0.839000000     0.523000000     0.809000000
H    -1.675000000     0.938000000     1.365000000
C     0.282000000     0.072000000     1.491000000
H     0.327000000     0.198000000     2.569000000
C     1.290000000    -0.515000000     0.719000000
C     2.560000000    -0.914000000     1.349000000
O     2.725000000    -0.488000000     2.442000000
O     3.324000000    -1.789000000     0.931000000
