14
-84.46059
C     0.382000000    -1.099000000    -0.927000000
H     0.487000000    -1.796000000    -1.754000000
C    -0.696000000    -0.248000000    -1.112000000
H    -1.432000000    -0.393000000    -1.899000000
C    -0.997000000     0.694000000    -0.175000000
H    -1.964000000     1.294000000    -0.109000000
C    -0.099000000     0.929000000     0.918000000
H    -0.258000000     1.713000000     1.653000000
C     1.061000000     0.103000000     1.026000000
H     1.787000000     0.334000000     1.801000000
C     1.258000000    -0.999000000     0.163000000
C     2.477000000    -1.841000000     0.363000000
O     3.179000000    -1.583000000     1.309000000
O     2.768000000    -2.785000000    -0.349000000
