14
-87.57932
C     0.119000000     0.845000000    -1.236000000
H     0.087000000     1.436000000    -2.148000000
C    -0.874000000     1.066000000    -0.258000000
H    -1.525000000     1.937000000    -0.243000000
C    -0.765000000     0.211000000     0.931000000
H    -1.494000000     0.344000000     1.750000000
C     0.152000000    -0.850000000     0.987000000
H     0.120000000    -1.485000000     1.869000000
C     1.054000000    -0.977000000    -0.029000000
H     1.811000000    -1.754000000     0.039000000
C     1.041000000    -0.161000000    -1.168000000
C     2.049000000    -0.516000000    -2.254000000
O     2.962000000    -1.269000000    -1.934000000
O     1.896000000    -0.135000000    -3.376000000
