14
-89.40663
C     0.791000000     1.053000000    -0.658000000
H     1.209000000     1.906000000    -1.187000000
C    -0.496000000     1.211000000    -0.168000000
H    -1.022000000     2.153000000    -0.303000000
C    -1.114000000     0.143000000     0.450000000
H    -2.112000000     0.244000000     0.937000000
C    -0.433000000    -1.037000000     0.644000000
H    -0.985000000    -1.835000000     1.133000000
C     0.805000000    -1.226000000     0.075000000
H     1.276000000    -2.198000000     0.194000000
C     1.521000000    -0.145000000    -0.526000000
C     2.860000000    -0.279000000    -1.131000000
O     3.596000000    -1.268000000    -0.936000000
O     3.345000000     0.762000000    -1.601000000
