14
-87.18886
C     0.513000000     0.925000000    -0.966000000
H     0.872000000     1.683000000    -1.658000000
C    -0.755000000     0.973000000    -0.483000000
H    -1.399000000     1.803000000    -0.760000000
C    -1.132000000     0.036000000     0.448000000
H    -2.101000000    -0.005000000     0.959000000
C    -0.246000000    -0.936000000     0.927000000
H    -0.599000000    -1.644000000     1.673000000
C     1.030000000    -0.996000000     0.356000000
H     1.647000000    -1.823000000     0.698000000
C     1.419000000    -0.066000000    -0.618000000
C     2.865000000    -0.024000000    -1.118000000
O     3.608000000    -0.966000000    -0.882000000
O     3.166000000     0.741000000    -2.085000000
