14
-87.60247
C     1.324000000     0.540000000    -0.435000000
H     2.150000000     0.952000000    -1.009000000
C     0.080000000     1.168000000    -0.547000000
H     0.043000000     2.165000000    -0.979000000
C    -1.062000000     0.612000000    -0.005000000
H    -2.052000000     1.171000000    -0.077000000
C    -1.003000000    -0.596000000     0.627000000
H    -1.920000000    -1.021000000     1.027000000
C     0.224000000    -1.284000000     0.675000000
H     0.228000000    -2.240000000     1.192000000
C     1.394000000    -0.677000000     0.203000000
C     2.659000000    -1.539000000     0.250000000
O     2.715000000    -2.669000000     0.681000000
O     3.678000000    -1.081000000    -0.256000000
