14
-85.47502
C     1.174000000     0.752000000    -0.281000000
H     1.951000000     1.493000000    -0.452000000
C    -0.132000000     1.198000000    -0.363000000
H    -0.345000000     2.258000000    -0.465000000
C    -1.166000000     0.357000000    -0.016000000
H    -2.201000000     0.736000000     0.045000000
C    -0.904000000    -0.957000000     0.340000000
H    -1.813000000    -1.509000000     0.568000000
C     0.407000000    -1.394000000     0.352000000
H     0.603000000    -2.414000000     0.672000000
C     1.481000000    -0.560000000     0.102000000
C     2.917000000    -1.021000000    -0.001000000
O     3.194000000    -2.217000000     0.011000000
O     3.865000000    -0.268000000    -0.101000000
