14
-90.15623
C     0.886000000     0.938000000    -0.764000000
H     1.395000000     1.641000000    -1.419000000
C    -0.402000000     1.235000000    -0.284000000
H    -0.869000000     2.202000000    -0.455000000
C    -1.078000000     0.325000000     0.493000000
H    -1.977000000     0.629000000     1.048000000
C    -0.586000000    -0.964000000     0.629000000
H    -1.138000000    -1.729000000     1.170000000
C     0.666000000    -1.308000000     0.052000000
H     1.003000000    -2.338000000     0.142000000
C     1.438000000    -0.321000000    -0.552000000
C     2.749000000    -0.764000000    -1.074000000
O     3.034000000    -1.926000000    -1.219000000
O     3.612000000     0.113000000    -1.373000000
