14
-89.33132
C     1.233000000     0.452000000    -0.535000000
H     2.107000000     0.868000000    -1.030000000
C     0.164000000     1.291000000    -0.276000000
H     0.187000000     2.369000000    -0.412000000
C    -0.952000000     0.700000000     0.306000000
H    -1.798000000     1.310000000     0.505000000
C    -1.015000000    -0.668000000     0.492000000
H    -1.878000000    -1.184000000     0.907000000
C     0.062000000    -1.500000000     0.102000000
H     0.101000000    -2.548000000     0.389000000
C     1.208000000    -0.937000000    -0.443000000
C     2.402000000    -1.817000000    -0.724000000
O     2.355000000    -3.055000000    -0.836000000
O     3.483000000    -1.270000000    -0.855000000
