14
-86.12431
C     1.097000000    -0.395000000    -0.831000000
H     1.922000000    -0.592000000    -1.511000000
C     0.712000000     0.914000000    -0.681000000
H     1.302000000     1.729000000    -1.090000000
C    -0.348000000     1.158000000     0.241000000
H    -0.634000000     2.213000000     0.418000000
C    -0.973000000     0.139000000     0.926000000
H    -1.782000000     0.291000000     1.636000000
C    -0.549000000    -1.239000000     0.772000000
H    -1.090000000    -2.043000000     1.264000000
C     0.435000000    -1.505000000    -0.214000000
C     0.698000000    -2.934000000    -0.682000000
O     0.087000000    -3.874000000    -0.165000000
O     1.471000000    -3.207000000    -1.559000000
