14
-83.96868
C     1.410000000     0.159000000    -0.469000000
H     2.395000000     0.466000000    -0.811000000
C     0.405000000     1.157000000    -0.446000000
H     0.604000000     2.193000000    -0.710000000
C    -0.835000000     0.834000000     0.010000000
H    -1.531000000     1.598000000     0.185000000
C    -1.194000000    -0.449000000     0.452000000
H    -2.158000000    -0.580000000     0.936000000
C    -0.158000000    -1.350000000     0.521000000
H    -0.354000000    -2.367000000     0.853000000
C     1.146000000    -1.123000000    -0.002000000
C     2.233000000    -2.126000000     0.053000000
O     1.871000000    -3.248000000     0.501000000
O     3.258000000    -1.925000000    -0.468000000
