14
-90.25293
C    -0.640000000    -1.019000000     0.885000000
H    -1.222000000    -1.771000000     1.410000000
C    -1.247000000     0.156000000     0.404000000
H    -2.280000000     0.352000000     0.682000000
C    -0.569000000     1.060000000    -0.323000000
H    -1.079000000     2.004000000    -0.726000000
C     0.771000000     0.757000000    -0.650000000
H     1.316000000     1.391000000    -1.345000000
C     1.371000000    -0.423000000    -0.211000000
H     2.379000000    -0.605000000    -0.575000000
C     0.672000000    -1.314000000     0.613000000
C     1.263000000    -2.658000000     1.088000000
O     2.256000000    -3.035000000     0.485000000
O     0.718000000    -3.360000000     1.911000000
