14
-82.66659
C    -0.945000000    -0.898000000     0.844000000
H    -1.524000000    -1.678000000     1.333000000
C    -0.428000000    -1.181000000    -0.519000000
H    -0.737000000    -2.014000000    -1.145000000
C     0.326000000    -0.208000000    -1.174000000
H     0.634000000    -0.297000000    -2.200000000
C     0.746000000     0.954000000    -0.471000000
H     1.409000000     1.611000000    -1.028000000
C     0.411000000     1.134000000     0.850000000
H     0.801000000     2.009000000     1.363000000
C    -0.446000000     0.223000000     1.478000000
C    -0.719000000     0.376000000     3.005000000
O    -0.647000000     1.473000000     3.506000000
O    -1.075000000    -0.531000000     3.704000000
