14
-92.52850
C     0.413000000    -0.618000000    -1.293000000
H     0.556000000    -1.065000000    -2.274000000
C    -0.890000000    -0.175000000    -0.961000000
H    -1.712000000    -0.391000000    -1.639000000
C    -1.138000000     0.371000000     0.359000000
H    -2.166000000     0.614000000     0.651000000
C    -0.090000000     0.440000000     1.261000000
H    -0.227000000     0.950000000     2.211000000
C     1.162000000     0.047000000     0.865000000
H     2.017000000     0.288000000     1.491000000
C     1.468000000    -0.519000000    -0.376000000
C     2.869000000    -1.016000000    -0.766000000
O     3.870000000    -0.462000000    -0.231000000
O     2.989000000    -1.854000000    -1.651000000
