14
-88.09890
C     0.115000000    -0.557000000    -1.427000000
H     0.035000000    -0.867000000    -2.466000000
C    -1.097000000    -0.334000000    -0.745000000
H    -2.053000000    -0.539000000    -1.220000000
C    -1.082000000     0.143000000     0.575000000
H    -2.043000000     0.292000000     1.111000000
C     0.135000000     0.405000000     1.175000000
H     0.213000000     0.811000000     2.180000000
C     1.325000000     0.186000000     0.519000000
H     2.245000000     0.468000000     1.025000000
C     1.369000000    -0.337000000    -0.734000000
C     2.736000000    -0.618000000    -1.297000000
O     3.766000000    -0.104000000    -0.838000000
O     2.851000000    -1.426000000    -2.184000000
