14
-83.25573
C    -0.137000000    -0.941000000    -1.117000000
H    -0.434000000    -1.538000000    -1.976000000
C    -1.069000000    -0.008000000    -0.668000000
H    -2.057000000     0.080000000    -1.114000000
C    -0.789000000     0.857000000     0.354000000
H    -1.511000000     1.571000000     0.748000000
C     0.398000000     0.815000000     1.007000000
H     0.521000000     1.485000000     1.855000000
C     1.393000000    -0.113000000     0.596000000
H     2.328000000    -0.197000000     1.143000000
C     1.111000000    -1.012000000    -0.457000000
C     2.122000000    -2.028000000    -0.956000000
O     3.215000000    -2.105000000    -0.461000000
O     1.926000000    -2.751000000    -1.899000000
