14
-84.95972
C     0.484000000    -0.695000000    -1.200000000
H     0.788000000    -1.132000000    -2.147000000
C    -0.440000000     0.386000000    -1.219000000
H    -0.933000000     0.696000000    -2.136000000
C    -0.882000000     0.940000000    -0.027000000
H    -1.541000000     1.731000000     0.020000000
C    -0.347000000     0.400000000     1.170000000
H    -0.649000000     0.727000000     2.161000000
C     0.490000000    -0.675000000     1.161000000
H     0.961000000    -1.041000000     2.070000000
C     0.951000000    -1.247000000    -0.036000000
C     1.901000000    -2.463000000     0.003000000
O     2.337000000    -2.833000000     1.047000000
O     2.224000000    -2.983000000    -1.011000000
