14
-85.06016
C    -0.923000000    -1.049000000     0.383000000
H    -1.498000000    -1.962000000     0.510000000
C    -0.512000000    -0.718000000    -0.931000000
H    -0.939000000    -1.307000000    -1.739000000
C     0.243000000     0.408000000    -1.140000000
H     0.600000000     0.660000000    -2.151000000
C     0.776000000     1.103000000    -0.012000000
H     1.511000000     1.874000000    -0.228000000
C     0.447000000     0.699000000     1.307000000
H     0.981000000     1.133000000     2.148000000
C    -0.530000000    -0.329000000     1.504000000
C    -0.841000000    -0.763000000     2.858000000
O    -0.447000000    -0.163000000     3.849000000
O    -1.546000000    -1.723000000     2.992000000
