14
-86.27466
C     0.335000000    -0.674000000    -1.301000000
H     0.609000000    -1.096000000    -2.264000000
C    -0.250000000     0.594000000    -1.145000000
H    -0.715000000     1.098000000    -1.988000000
C    -0.492000000     1.149000000     0.128000000
H    -1.014000000     2.117000000     0.178000000
C    -0.224000000     0.330000000     1.218000000
H    -0.461000000     0.812000000     2.163000000
C     0.353000000    -0.924000000     1.095000000
H     0.497000000    -1.533000000     1.984000000
C     0.662000000    -1.416000000    -0.208000000
C     1.419000000    -2.714000000    -0.207000000
O     1.702000000    -3.287000000     0.829000000
O     1.983000000    -3.033000000    -1.239000000
