14
-83.94176
C     1.129000000     0.012000000    -0.845000000
H     2.060000000     0.105000000    -1.399000000
C     0.548000000     1.125000000    -0.308000000
H     0.940000000     2.124000000    -0.482000000
C    -0.500000000     0.954000000     0.586000000
H    -1.051000000     1.882000000     0.934000000
C    -1.017000000    -0.312000000     0.862000000
H    -1.882000000    -0.410000000     1.514000000
C    -0.504000000    -1.429000000     0.163000000
H    -0.894000000    -2.407000000     0.436000000
C     0.590000000    -1.278000000    -0.730000000
C     1.191000000    -2.402000000    -1.522000000
O     0.861000000    -3.583000000    -1.275000000
O     1.917000000    -2.292000000    -2.477000000
