14
-90.85332
C    -1.373000000    -0.446000000     0.064000000
H    -2.363000000    -0.888000000    -0.022000000
C    -0.523000000    -0.609000000    -1.000000000
H    -0.870000000    -1.210000000    -1.836000000
C     0.772000000    -0.207000000    -0.906000000
H     1.512000000    -0.373000000    -1.725000000
C     1.197000000     0.603000000     0.166000000
H     2.219000000     0.968000000     0.228000000
C     0.312000000     0.891000000     1.213000000
H     0.684000000     1.440000000     2.074000000
C    -0.987000000     0.347000000     1.185000000
C    -1.944000000     0.646000000     2.395000000
O    -1.525000000     1.363000000     3.297000000
O    -3.058000000     0.131000000     2.496000000
