14
-88.95019
C     0.829000000     0.833000000    -0.907000000
H     1.574000000     1.359000000    -1.499000000
C     0.533000000     1.111000000     0.446000000
H     1.069000000     1.905000000     0.960000000
C    -0.329000000     0.286000000     1.136000000
H    -0.463000000     0.500000000     2.168000000
C    -0.965000000    -0.810000000     0.480000000
H    -1.677000000    -1.402000000     1.049000000
C    -0.690000000    -1.157000000    -0.859000000
H    -1.098000000    -2.042000000    -1.341000000
C     0.196000000    -0.267000000    -1.522000000
C     0.717000000    -0.730000000    -2.861000000
O     0.271000000    -1.733000000    -3.429000000
O     1.678000000    -0.176000000    -3.341000000
