14
-89.39621
C     1.226000000    -0.432000000    -0.603000000
H     2.123000000    -0.786000000    -1.105000000
C     0.945000000    -0.622000000     0.734000000
H     1.578000000    -1.213000000     1.391000000
C    -0.245000000    -0.065000000     1.258000000
H    -0.647000000    -0.335000000     2.200000000
C    -1.121000000     0.534000000     0.379000000
H    -2.042000000     0.878000000     0.844000000
C    -0.866000000     0.737000000    -1.004000000
H    -1.520000000     1.320000000    -1.647000000
C     0.343000000     0.218000000    -1.528000000
C     0.812000000     0.461000000    -3.034000000
O     0.096000000     1.081000000    -3.773000000
O     1.891000000    -0.021000000    -3.364000000
