14
-85.78813
C     0.722000000    -1.286000000    -0.196000000
H     1.159000000    -2.279000000    -0.249000000
C     0.885000000    -0.426000000     0.907000000
H     1.483000000    -0.750000000     1.755000000
C     0.275000000     0.815000000     0.883000000
H     0.576000000     1.563000000     1.690000000
C    -0.521000000     1.244000000    -0.161000000
H    -1.051000000     2.193000000    -0.136000000
C    -0.774000000     0.302000000    -1.260000000
H    -1.329000000     0.659000000    -2.124000000
C    -0.174000000    -0.983000000    -1.241000000
C    -0.577000000    -1.954000000    -2.367000000
O    -1.443000000    -1.664000000    -3.139000000
O    -0.087000000    -3.078000000    -2.431000000
