14
-86.76719
C     1.053000000    -0.229000000    -1.021000000
H     1.907000000    -0.301000000    -1.690000000
C     1.280000000     0.319000000     0.259000000
H     2.294000000     0.489000000     0.611000000
C     0.178000000     0.573000000     1.079000000
H     0.345000000     1.032000000     1.992000000
C    -1.063000000     0.146000000     0.693000000
H    -1.875000000     0.235000000     1.410000000
C    -1.231000000    -0.391000000    -0.562000000
H    -2.243000000    -0.720000000    -0.784000000
C    -0.195000000    -0.646000000    -1.419000000
C    -0.523000000    -1.357000000    -2.793000000
O    -1.667000000    -1.624000000    -3.154000000
O     0.395000000    -1.590000000    -3.528000000
