14
-85.55877
C     0.993000000    -0.931000000     0.634000000
H     1.862000000    -1.429000000     1.056000000
C     0.262000000     0.072000000     1.274000000
H     0.427000000     0.299000000     2.324000000
C    -0.690000000     0.821000000     0.633000000
H    -1.237000000     1.615000000     1.179000000
C    -0.918000000     0.607000000    -0.742000000
H    -1.677000000     1.264000000    -1.159000000
C    -0.232000000    -0.473000000    -1.387000000
H    -0.355000000    -0.617000000    -2.457000000
C     0.777000000    -1.182000000    -0.758000000
C     1.651000000    -2.119000000    -1.530000000
O     1.406000000    -2.466000000    -2.654000000
O     2.726000000    -2.452000000    -1.055000000
