14
-78.25309
C     1.375000000     0.547000000    -0.120000000
H     2.453000000     0.678000000    -0.059000000
C     0.683000000     0.364000000     1.067000000
H     1.181000000     0.516000000     2.021000000
C    -0.640000000    -0.029000000     1.017000000
H    -1.145000000    -0.134000000     1.957000000
C    -1.234000000    -0.210000000    -0.166000000
H    -2.269000000    -0.533000000    -0.091000000
C    -0.541000000    -0.074000000    -1.400000000
H    -1.144000000    -0.163000000    -2.299000000
C     0.770000000     0.289000000    -1.359000000
C     1.616000000     0.054000000    -2.582000000
O     1.206000000    -0.507000000    -3.584000000
O     2.851000000     0.024000000    -2.466000000
