14
-86.08307
C     1.436000000     0.246000000    -0.299000000
H     2.490000000     0.454000000    -0.466000000
C     0.783000000     0.680000000     0.840000000
H     1.302000000     1.195000000     1.644000000
C    -0.534000000     0.327000000     1.025000000
H    -1.008000000     0.523000000     2.004000000
C    -1.226000000    -0.393000000     0.042000000
H    -2.269000000    -0.592000000     0.274000000
C    -0.623000000    -0.717000000    -1.144000000
H    -1.210000000    -1.271000000    -1.872000000
C     0.692000000    -0.389000000    -1.308000000
C     1.341000000    -0.735000000    -2.674000000
O     0.719000000    -1.111000000    -3.639000000
O     2.537000000    -0.631000000    -2.809000000
