14
-87.90923
C     1.062000000     0.703000000    -0.731000000
H     1.915000000     1.246000000    -1.129000000
C     0.273000000     1.293000000     0.260000000
H     0.597000000     2.257000000     0.642000000
C    -0.677000000     0.489000000     0.863000000
H    -1.161000000     0.850000000     1.789000000
C    -1.008000000    -0.745000000     0.394000000
H    -1.732000000    -1.274000000     1.007000000
C    -0.258000000    -1.296000000    -0.614000000
H    -0.553000000    -2.274000000    -0.986000000
C     0.830000000    -0.642000000    -1.210000000
C     1.705000000    -1.332000000    -2.227000000
O     1.408000000    -2.483000000    -2.487000000
O     2.719000000    -0.819000000    -2.701000000
