14
-85.39507
C     1.045000000     0.948000000    -0.365000000
H     1.745000000     1.772000000    -0.481000000
C     0.355000000     0.929000000     0.855000000
H     0.595000000     1.698000000     1.585000000
C    -0.659000000     0.003000000     1.070000000
H    -1.137000000    -0.079000000     1.979000000
C    -0.998000000    -0.812000000     0.022000000
H    -1.802000000    -1.511000000     0.239000000
C    -0.348000000    -0.830000000    -1.192000000
H    -0.577000000    -1.593000000    -1.931000000
C     0.703000000     0.082000000    -1.440000000
C     1.523000000     0.073000000    -2.790000000
O     1.400000000    -0.770000000    -3.621000000
O     2.380000000     0.920000000    -2.913000000
