14
-87.99105
C     1.475000000    -0.035000000     0.204000000
H     2.509000000    -0.107000000     0.531000000
C     0.466000000     0.093000000     1.153000000
H     0.763000000     0.265000000     2.184000000
C    -0.897000000     0.127000000     0.862000000
H    -1.588000000     0.296000000     1.633000000
C    -1.268000000     0.056000000    -0.481000000
H    -2.312000000     0.161000000    -0.764000000
C    -0.240000000    -0.134000000    -1.472000000
H    -0.635000000    -0.057000000    -2.482000000
C     1.119000000    -0.165000000    -1.147000000
C     2.054000000    -0.526000000    -2.254000000
O     1.757000000    -0.416000000    -3.422000000
O     3.163000000    -0.792000000    -1.848000000
