14
-89.79693
C     0.885000000     0.912000000    -0.764000000
H     1.639000000     1.515000000    -1.264000000
C     1.242000000     0.252000000     0.422000000
H     2.171000000     0.533000000     0.910000000
C     0.336000000    -0.524000000     1.084000000
H     0.628000000    -1.007000000     2.085000000
C    -0.976000000    -0.747000000     0.558000000
H    -1.722000000    -1.408000000     0.991000000
C    -1.333000000    -0.057000000    -0.588000000
H    -2.342000000    -0.203000000    -0.966000000
C    -0.439000000     0.711000000    -1.310000000
C    -0.865000000     1.430000000    -2.585000000
O    -2.038000000     1.339000000    -2.977000000
O    -0.078000000     2.105000000    -3.241000000
