14
-76.28521
C    -0.908000000     0.083000000    -1.142000000
H    -1.430000000    -0.028000000    -2.089000000
C     0.477000000    -0.098000000    -1.189000000
H     0.962000000    -0.320000000    -2.136000000
C     1.205000000    -0.137000000    -0.077000000
H     2.226000000    -0.260000000    -0.247000000
C     0.649000000     0.035000000     1.206000000
H     1.359000000    -0.046000000     2.025000000
C    -0.803000000     0.148000000     1.213000000
H    -1.361000000     0.126000000     2.146000000
C    -1.584000000     0.051000000     0.105000000
C    -3.111000000     0.060000000     0.254000000
O    -3.606000000     0.421000000     1.286000000
O    -3.821000000    -0.096000000    -0.718000000
