14
-90.81118
C    -1.291000000     0.196000000    -0.704000000
H    -2.175000000     0.420000000    -1.296000000
C    -0.421000000     1.184000000    -0.261000000
H    -0.699000000     2.214000000    -0.467000000
C     0.774000000     0.896000000     0.418000000
H     1.343000000     1.708000000     0.765000000
C     1.107000000    -0.425000000     0.655000000
H     2.011000000    -0.679000000     1.203000000
C     0.238000000    -1.407000000     0.268000000
H     0.391000000    -2.430000000     0.604000000
C    -0.945000000    -1.146000000    -0.456000000
C    -1.962000000    -2.213000000    -0.942000000
O    -1.557000000    -3.384000000    -0.957000000
O    -2.962000000    -1.889000000    -1.538000000
