14
-84.37718
C    -1.433000000     0.169000000    -0.249000000
H    -2.518000000     0.218000000    -0.282000000
C    -0.758000000     0.604000000     0.888000000
H    -1.231000000     1.007000000     1.780000000
C     0.558000000     0.385000000     1.025000000
H     1.052000000     0.699000000     1.980000000
C     1.311000000    -0.174000000    -0.005000000
H     2.387000000    -0.313000000     0.048000000
C     0.657000000    -0.478000000    -1.255000000
H     1.224000000    -0.827000000    -2.114000000
C    -0.778000000    -0.444000000    -1.310000000
C    -1.518000000    -0.854000000    -2.557000000
O    -0.931000000    -1.431000000    -3.446000000
O    -2.721000000    -0.772000000    -2.602000000
