14
-86.92086
C    -1.359000000     0.677000000     0.308000000
H    -2.270000000     1.206000000     0.573000000
C    -0.122000000     0.947000000     1.014000000
H    -0.032000000     1.687000000     1.805000000
C     0.981000000     0.213000000     0.671000000
H     1.938000000     0.448000000     1.245000000
C     0.944000000    -0.721000000    -0.365000000
H     1.877000000    -1.151000000    -0.719000000
C    -0.166000000    -0.960000000    -1.112000000
H    -0.202000000    -1.617000000    -1.977000000
C    -1.366000000    -0.284000000    -0.744000000
C    -2.580000000    -0.480000000    -1.608000000
O    -2.472000000    -1.115000000    -2.616000000
O    -3.593000000     0.123000000    -1.330000000
