215
-1449.92928
C    -2.182000000    -1.441000000    -4.254000000
H    -1.441000000    -2.189000000    -3.982000000
C    -1.826000000    -0.072000000    -4.332000000
C    -2.799000000     0.879000000    -4.568000000
H    -2.561000000     1.939000000    -4.589000000
C    -0.380000000     0.254000000    -4.070000000
O     0.471000000    -0.678000000    -4.774000000
H    -0.149000000     0.184000000    -2.997000000
O    -0.104000000     1.598000000    -4.480000000
C     0.560000000     2.375000000    -3.642000000
C    -0.097000000     3.436000000    -3.019000000
H    -1.132000000     3.677000000    -3.244000000
C     0.573000000     4.054000000    -2.028000000
O    -0.162000000     4.918000000    -1.186000000
C     1.992000000     3.880000000    -1.861000000
C     2.700000000     4.816000000    -0.886000000
H     3.752000000     4.943000000    -1.147000000
C     2.702000000     4.136000000     0.496000000
C     3.695000000     3.300000000     0.784000000
H     4.505000000     3.182000000     0.070000000
H     2.166000000     5.768000000    -0.864000000
C     2.713000000     2.968000000    -2.623000000
H     3.774000000     2.743000000    -2.545000000
C     1.926000000     2.253000000    -3.489000000
C     2.606000000     1.279000000    -4.505000000
H     3.637000000     1.615000000    -4.630000000
H     2.162000000     1.277000000    -5.503000000
C     2.709000000    -0.094000000    -3.938000000
C     3.835000000    -0.420000000    -3.192000000
H     4.633000000     0.315000000    -3.110000000
C     1.652000000    -1.043000000    -4.121000000
C     1.914000000    -2.342000000    -3.684000000
H     1.150000000    -3.108000000    -3.786000000
C     2.963000000    -2.727000000    -2.918000000
O     2.942000000    -3.856000000    -2.166000000
C     2.324000000    -3.805000000    -0.783000000
C     1.361000000    -4.894000000    -0.393000000
C     1.475000000    -5.591000000     0.833000000
H     2.287000000    -5.292000000     1.491000000
C     0.261000000    -5.175000000    -1.205000000
H     0.190000000    -4.754000000    -2.205000000
O     3.370000000    -3.615000000     0.243000000
H     1.700000000    -2.899000000    -0.810000000
C     3.941000000    -1.717000000    -2.638000000
C     5.053000000    -1.971000000    -1.716000000
H     6.001000000    -1.546000000    -2.053000000
H     5.168000000    -3.056000000    -1.681000000
C     4.664000000    -1.581000000    -0.277000000
C     5.115000000    -0.357000000     0.298000000
H     5.795000000     0.261000000    -0.283000000
C     3.882000000    -2.364000000     0.573000000
C     3.457000000    -1.967000000     1.809000000
H     2.906000000    -2.687000000     2.408000000
C     3.804000000    -0.748000000     2.305000000
O     3.277000000    -0.418000000     3.528000000
C     2.190000000     0.524000000     3.447000000
C     1.129000000     0.079000000     4.321000000
C     0.653000000    -1.268000000     4.318000000
H     1.073000000    -1.939000000     3.572000000
C     0.438000000     0.948000000     5.185000000
H     0.628000000     2.013000000     5.291000000
O     2.743000000     1.792000000     3.847000000
H     1.826000000     0.632000000     2.415000000
C     4.663000000     0.106000000     1.533000000
C     4.983000000     1.495000000     2.048000000
H     5.798000000     1.824000000     1.401000000
H     5.359000000     1.502000000     3.073000000
C     3.797000000     2.535000000     1.959000000
C     2.787000000     2.727000000     2.892000000
C     1.698000000     3.525000000     2.665000000
H     0.772000000     3.544000000     3.235000000
C     1.707000000     4.314000000     1.463000000
O     0.588000000     5.037000000     1.147000000
C    -0.272000000     4.422000000     0.206000000
H     0.043000000     3.369000000     0.163000000
C    -1.749000000     4.488000000     0.615000000
C    -2.767000000     4.441000000    -0.345000000
H    -2.558000000     4.579000000    -1.403000000
C    -2.057000000     4.354000000     1.961000000
H    -1.251000000     4.194000000     2.672000000
C    -3.405000000     4.156000000     2.350000000
O    -3.756000000     3.816000000     3.602000000
C    -4.441000000     4.147000000     1.404000000
H    -5.471000000     3.877000000     1.626000000
C    -4.066000000     4.224000000     0.045000000
O    -5.092000000     3.871000000    -0.804000000
C    -5.076000000     3.870000000    -2.208000000
C    -4.911000000     2.718000000    -2.882000000
H    -4.725000000     1.806000000    -2.321000000
C    -5.294000000     5.073000000    -2.900000000
H    -5.386000000     6.043000000    -2.419000000
C    -5.412000000     5.049000000    -4.332000000
H    -5.627000000     6.002000000    -4.809000000
C    -5.381000000     3.821000000    -5.029000000
H    -5.595000000     3.692000000    -6.087000000
C    -5.087000000     2.666000000    -4.314000000
O    -5.145000000     1.435000000    -4.904000000
C    -4.150000000     0.476000000    -4.666000000
C    -4.475000000    -0.832000000    -4.550000000
H    -5.521000000    -1.125000000    -4.573000000
C    -3.543000000    -1.817000000    -4.328000000
O    -3.927000000    -3.095000000    -4.151000000
C    -3.135000000    -4.192000000    -4.155000000
C    -2.968000000    -4.850000000    -2.935000000
H    -3.472000000    -4.439000000    -2.065000000
C    -2.338000000    -4.610000000    -5.221000000
H    -2.581000000    -4.165000000    -6.182000000
C    -1.481000000    -5.682000000    -5.154000000
H    -0.879000000    -6.006000000    -6.000000000
C    -1.371000000    -6.409000000    -3.962000000
H    -0.724000000    -7.278000000    -4.037000000
C    -1.996000000    -5.906000000    -2.845000000
O    -1.810000000    -6.328000000    -1.531000000
C    -0.640000000    -6.100000000    -0.818000000
C    -0.572000000    -6.743000000     0.472000000
H    -1.440000000    -7.349000000     0.719000000
C     0.511000000    -6.489000000     1.282000000
O     0.515000000    -6.924000000     2.594000000
C     0.715000000    -6.051000000     3.692000000
C     0.011000000    -4.829000000     3.760000000
H    -0.718000000    -4.534000000     3.011000000
C     1.433000000    -6.548000000     4.753000000
H     1.947000000    -7.497000000     4.626000000
C     1.568000000    -5.758000000     5.903000000
H     2.042000000    -6.173000000     6.789000000
C     0.988000000    -4.502000000     5.876000000
H     0.962000000    -3.913000000     6.789000000
C     0.072000000    -4.079000000     4.921000000
O    -0.791000000    -2.995000000     5.040000000
C    -0.352000000    -1.706000000     5.127000000
C    -0.998000000    -0.823000000     5.995000000
H    -1.845000000    -1.056000000     6.636000000
C    -0.637000000     0.468000000     5.952000000
O    -1.279000000     1.364000000     6.783000000
C    -1.664000000     2.519000000     6.198000000
C    -1.205000000     3.706000000     6.825000000
H    -0.431000000     3.658000000     7.588000000
C    -1.732000000     4.914000000     6.287000000
H    -1.557000000     5.856000000     6.800000000
C    -2.600000000     4.968000000     5.217000000
H    -3.029000000     5.914000000     4.897000000
C    -2.946000000     3.750000000     4.632000000
C    -2.474000000     2.512000000     5.079000000
H    -2.833000000     1.598000000     4.614000000
C    -1.248000000    -0.826000000     1.541000000
H    -1.380000000    -1.620000000     2.271000000
C    -0.102000000    -0.758000000     0.750000000
H     0.769000000    -1.399000000     0.864000000
C     0.002000000     0.129000000    -0.284000000
H     0.889000000     0.135000000    -0.914000000
C    -1.040000000     1.053000000    -0.470000000
H    -0.991000000     1.771000000    -1.284000000
C    -2.220000000     0.942000000     0.317000000
H    -3.083000000     1.588000000     0.183000000
C    -2.308000000     0.027000000     1.356000000
C    -3.626000000    -0.179000000     2.046000000
O    -4.605000000     0.540000000     1.850000000
O    -3.828000000    -1.274000000     2.587000000
O    -6.334000000     1.459000000     3.616000000
H    -5.579000000     1.995000000     3.858000000
H    -6.002000000     0.868000000     2.941000000
O    -4.278000000    -3.124000000     0.565000000
H    -4.134000000    -2.441000000     1.221000000
H    -3.508000000    -3.078000000    -0.001000000
O    -6.756000000     1.186000000    -0.206000000
H    -6.226000000     0.555000000    -0.692000000
H    -6.347000000     1.228000000     0.658000000
O    -6.834000000     1.493000000     7.712000000
H    -5.957000000     1.122000000     7.616000000
H    -7.328000000     0.822000000     8.182000000
O    -5.989000000    -5.200000000     1.273000000
H    -5.656000000    -4.316000000     1.122000000
H    -5.877000000    -5.645000000     0.433000000
O    -8.489000000     2.850000000     1.497000000
H    -9.234000000     2.439000000     1.059000000
H    -7.727000000     2.559000000     0.996000000
O    -2.168000000    -2.005000000    -1.120000000
H    -2.374000000    -1.581000000    -1.953000000
H    -1.686000000    -1.342000000    -0.625000000
O    -8.376000000     3.157000000    -1.487000000
H    -8.412000000     2.799000000    -2.374000000
H    -7.807000000     2.554000000    -1.008000000
O    -8.373000000    -2.016000000     0.277000000
H    -7.595000000    -1.702000000     0.738000000
H    -8.065000000    -2.205000000    -0.610000000
O    -4.120000000    -1.295000000     5.179000000
H    -4.049000000    -1.303000000     4.225000000
H    -4.292000000    -2.207000000     5.414000000
O    -8.019000000     2.332000000     5.662000000
H    -7.502000000     1.856000000     6.312000000
H    -7.482000000     2.313000000     4.869000000
O    -8.646000000    -0.173000000     4.522000000
H    -8.451000000     0.609000000     5.039000000
H    -8.043000000    -0.125000000     3.780000000
O    -6.557000000    -1.425000000     2.080000000
H    -6.313000000    -2.122000000     2.689000000
H    -5.775000000    -0.876000000     2.019000000
O    -7.303000000    -5.666000000     5.042000000
H    -8.007000000    -5.617000000     4.396000000
H    -6.709000000    -4.953000000     4.803000000
O    -5.266000000    -0.755000000    -1.526000000
H    -4.997000000    -1.374000000    -0.847000000
H    -5.576000000    -1.306000000    -2.244000000
O    -3.957000000     0.788000000     7.435000000
H    -3.138000000     1.190000000     7.144000000
H    -4.148000000     0.126000000     6.771000000
O    -6.325000000    -3.656000000    -1.088000000
H    -5.449000000    -3.517000000    -0.729000000
H    -6.392000000    -4.605000000    -1.194000000
O    -3.251000000    -4.569000000     5.197000000
H    -2.472000000    -4.034000000     5.046000000
H    -2.913000000    -5.455000000     5.320000000
O    -5.395000000    -4.059000000     3.740000000
H    -5.599000000    -4.519000000     2.926000000
H    -4.488000000    -4.299000000     3.930000000
