215
-1449.47417
C    -2.009000000    -5.198000000     0.785000000
H    -1.193000000    -5.879000000     1.013000000
C    -1.932000000    -4.372000000    -0.302000000
C    -3.008000000    -3.492000000    -0.553000000
H    -3.009000000    -2.690000000    -1.287000000
C    -0.727000000    -4.227000000    -1.166000000
O     0.342000000    -5.116000000    -0.798000000
H    -0.396000000    -3.195000000    -0.975000000
O    -0.984000000    -4.135000000    -2.602000000
C    -0.467000000    -3.076000000    -3.315000000
C    -1.235000000    -2.084000000    -3.906000000
H    -2.321000000    -2.055000000    -3.936000000
C    -0.567000000    -1.010000000    -4.549000000
O    -1.325000000     0.064000000    -4.852000000
C     0.799000000    -0.939000000    -4.659000000
C     1.411000000     0.273000000    -5.367000000
H     2.311000000    -0.058000000    -5.889000000
C     1.751000000     1.419000000    -4.462000000
C     2.960000000     1.458000000    -3.829000000
H     3.653000000     0.688000000    -4.159000000
H     0.683000000     0.562000000    -6.129000000
C     1.581000000    -2.077000000    -4.203000000
H     2.660000000    -2.068000000    -4.326000000
C     0.957000000    -3.136000000    -3.525000000
C     1.770000000    -4.338000000    -3.095000000
H     2.601000000    -4.517000000    -3.780000000
H     1.162000000    -5.244000000    -3.057000000
C     2.314000000    -4.139000000    -1.680000000
C     3.466000000    -3.381000000    -1.430000000
H     3.975000000    -2.961000000    -2.294000000
C     1.572000000    -4.581000000    -0.625000000
C     1.913000000    -4.215000000     0.721000000
H     1.239000000    -4.457000000     1.539000000
C     3.074000000    -3.494000000     0.953000000
O     3.360000000    -3.104000000     2.207000000
C     3.072000000    -1.719000000     2.606000000
C     2.203000000    -1.527000000     3.854000000
C     2.207000000    -0.363000000     4.612000000
H     2.984000000     0.372000000     4.419000000
C     1.307000000    -2.520000000     4.263000000
H     1.312000000    -3.539000000     3.885000000
O     4.212000000    -0.908000000     2.589000000
H     2.364000000    -1.344000000     1.852000000
C     3.815000000    -2.988000000    -0.124000000
C     5.097000000    -2.176000000     0.098000000
H     5.647000000    -2.491000000    -0.792000000
H     5.643000000    -2.638000000     0.923000000
C     4.781000000    -0.678000000     0.187000000
C     4.865000000     0.108000000    -0.924000000
H     5.186000000    -0.304000000    -1.877000000
C     4.395000000    -0.131000000     1.465000000
C     4.060000000     1.209000000     1.455000000
H     3.891000000     1.664000000     2.428000000
C     4.149000000     2.054000000     0.337000000
O     3.714000000     3.309000000     0.396000000
C     2.421000000     3.550000000    -0.113000000
C     1.461000000     4.339000000     0.819000000
C     1.688000000     4.428000000     2.206000000
H     2.498000000     3.859000000     2.657000000
C     0.293000000     4.991000000     0.357000000
H     0.075000000     4.871000000    -0.701000000
O     2.559000000     4.131000000    -1.404000000
H     1.898000000     2.588000000    -0.224000000
C     4.514000000     1.482000000    -0.901000000
C     4.625000000     2.371000000    -2.129000000
H     5.351000000     1.917000000    -2.808000000
H     4.971000000     3.339000000    -1.762000000
C     3.275000000     2.462000000    -2.877000000
C     2.260000000     3.336000000    -2.479000000
C     1.035000000     3.294000000    -3.085000000
H     0.321000000     4.092000000    -2.899000000
C     0.793000000     2.395000000    -4.106000000
O    -0.501000000     2.291000000    -4.543000000
C    -1.364000000     1.256000000    -3.996000000
H    -1.102000000     0.983000000    -2.963000000
C    -2.894000000     1.804000000    -3.828000000
C    -4.021000000     0.987000000    -3.688000000
H    -3.833000000    -0.073000000    -3.845000000
C    -3.104000000     3.159000000    -3.588000000
H    -2.270000000     3.856000000    -3.588000000
C    -4.310000000     3.692000000    -3.145000000
O    -4.450000000     5.036000000    -2.945000000
C    -5.435000000     2.885000000    -3.019000000
H    -6.399000000     3.349000000    -2.821000000
C    -5.258000000     1.485000000    -3.288000000
O    -6.370000000     0.704000000    -3.132000000
C    -6.367000000    -0.642000000    -2.645000000
C    -5.800000000    -1.028000000    -1.409000000
H    -5.298000000    -0.237000000    -0.857000000
C    -6.891000000    -1.650000000    -3.435000000
H    -7.362000000    -1.389000000    -4.379000000
C    -6.824000000    -3.007000000    -3.022000000
H    -7.435000000    -3.659000000    -3.640000000
C    -6.359000000    -3.342000000    -1.784000000
H    -6.399000000    -4.361000000    -1.408000000
C    -5.686000000    -2.345000000    -1.064000000
O    -5.174000000    -2.703000000     0.158000000
C    -4.082000000    -3.519000000     0.305000000
C    -4.209000000    -4.379000000     1.332000000
H    -4.997000000    -4.312000000     2.077000000
C    -3.137000000    -5.204000000     1.654000000
O    -3.083000000    -5.925000000     2.818000000
C    -2.054000000    -5.856000000     3.665000000
C    -1.584000000    -4.620000000     4.212000000
H    -2.098000000    -3.729000000     3.860000000
C    -1.534000000    -7.051000000     4.179000000
H    -2.001000000    -7.933000000     3.750000000
C    -0.462000000    -6.995000000     5.104000000
H    -0.039000000    -7.923000000     5.479000000
C     0.011000000    -5.805000000     5.672000000
H     0.720000000    -5.830000000     6.496000000
C    -0.558000000    -4.620000000     5.167000000
O    -0.304000000    -3.427000000     5.846000000
C     0.532000000    -2.423000000     5.412000000
C     0.537000000    -1.181000000     6.104000000
H    -0.028000000    -1.162000000     7.032000000
C     1.402000000    -0.140000000     5.752000000
O     1.630000000     0.893000000     6.638000000
C     2.090000000     2.089000000     6.193000000
C     1.211000000     2.983000000     5.587000000
H     0.188000000     2.683000000     5.376000000
C     3.448000000     2.441000000     6.402000000
H     4.142000000     1.690000000     6.771000000
C     3.956000000     3.605000000     5.881000000
H     5.000000000     3.851000000     6.060000000
C     3.077000000     4.536000000     5.293000000
H     3.535000000     5.494000000     5.061000000
C     1.753000000     4.154000000     5.044000000
O     0.968000000     5.099000000     4.406000000
C     0.819000000     5.136000000     3.024000000
C    -0.262000000     5.839000000     2.580000000
H    -0.899000000     6.375000000     3.279000000
C    -0.491000000     5.803000000     1.209000000
O    -1.604000000     6.476000000     0.651000000
C    -1.977000000     6.676000000    -0.732000000
C    -1.275000000     7.435000000    -1.588000000
H    -0.404000000     8.004000000    -1.273000000
C    -1.683000000     7.436000000    -2.948000000
H    -1.062000000     7.919000000    -3.697000000
C    -2.627000000     6.567000000    -3.409000000
H    -2.847000000     6.558000000    -4.474000000
C    -3.403000000     5.849000000    -2.499000000
C    -3.082000000     5.915000000    -1.158000000
H    -3.682000000     5.361000000    -0.440000000
C    -1.597000000    -0.770000000     1.273000000
H    -2.177000000    -1.499000000     1.834000000
C    -0.305000000    -1.025000000     0.942000000
H     0.157000000    -1.963000000     1.241000000
C     0.350000000    -0.147000000     0.084000000
H     1.304000000    -0.460000000    -0.261000000
C    -0.337000000     0.954000000    -0.435000000
H     0.135000000     1.551000000    -1.211000000
C    -1.677000000     1.224000000    -0.046000000
H    -2.197000000     2.065000000    -0.497000000
C    -2.338000000     0.344000000     0.855000000
C    -3.793000000     0.601000000     1.186000000
O    -4.352000000     1.519000000     0.649000000
O    -4.343000000    -0.026000000     2.036000000
O    -8.454000000     2.702000000    -1.891000000
H    -9.122000000     3.384000000    -1.816000000
H    -8.380000000     2.342000000    -1.008000000
O    -8.229000000     1.574000000     0.516000000
H    -7.844000000     0.870000000     1.038000000
H    -7.751000000     2.359000000     0.783000000
O    -4.035000000     6.061000000     2.575000000
H    -3.712000000     6.096000000     3.475000000
H    -3.646000000     5.266000000     2.211000000
O    -7.599000000    -3.627000000     2.720000000
H    -6.713000000    -3.616000000     3.081000000
H    -7.491000000    -3.960000000     1.830000000
O    -8.772000000    -1.461000000     4.105000000
H    -9.428000000    -1.237000000     3.445000000
H    -8.152000000    -2.025000000     3.645000000
O    -2.449000000     2.858000000     4.910000000
H    -1.923000000     2.677000000     4.131000000
H    -2.801000000     2.005000000     5.165000000
O    -5.713000000     1.896000000     3.322000000
H    -5.173000000     1.277000000     2.831000000
H    -6.113000000     1.369000000     4.013000000
O    -6.844000000    -0.754000000     1.581000000
H    -5.957000000    -0.396000000     1.596000000
H    -6.866000000    -1.309000000     0.802000000
O    -3.033000000     3.771000000     1.708000000
H    -2.263000000     3.459000000     2.182000000
H    -3.400000000     2.984000000     1.303000000
O    -5.522000000     1.286000000     7.313000000
H    -5.040000000     0.820000000     6.630000000
H    -6.222000000     0.685000000     7.566000000
O    -4.558000000    -4.036000000     5.447000000
H    -4.792000000    -3.631000000     4.612000000
H    -3.744000000    -3.601000000     5.704000000
O    -6.714000000    -0.187000000     5.228000000
H    -7.182000000    -0.218000000     6.062000000
H    -7.392000000    -0.324000000     4.567000000
O    -5.112000000    -1.888000000     3.674000000
H    -5.832000000    -1.584000000     4.227000000
H    -4.765000000    -1.091000000     3.273000000
O    -0.713000000     2.323000000     2.733000000
H    -0.153000000     2.486000000     1.974000000
H    -0.582000000     1.396000000     2.933000000
O    -3.045000000     0.221000000     6.085000000
H    -2.968000000    -0.403000000     6.806000000
H    -2.824000000    -0.286000000     5.304000000
O    -6.796000000     5.336000000     3.110000000
H    -6.068000000     5.954000000     3.042000000
H    -6.661000000     4.726000000     2.385000000
O    -7.436000000     5.668000000    -0.347000000
H    -7.546000000     4.789000000     0.016000000
H    -6.487000000     5.784000000    -0.407000000
O    -5.627000000     3.836000000     5.738000000
H    -5.537000000     3.000000000     6.195000000
H    -5.547000000     3.612000000     4.811000000
O    -6.397000000     3.408000000     0.897000000
H    -5.600000000     3.194000000     0.411000000
H    -6.316000000     2.918000000     1.716000000
