215
-1470.43831
C    -1.370000000    -4.900000000     0.858000000
H    -0.426000000    -4.643000000     1.331000000
C    -1.390000000    -4.848000000    -0.576000000
C    -2.535000000    -5.109000000    -1.288000000
H    -2.524000000    -4.998000000    -2.369000000
C    -0.109000000    -4.334000000    -1.217000000
O     1.062000000    -5.029000000    -0.710000000
H     0.019000000    -3.259000000    -1.023000000
O    -0.214000000    -4.553000000    -2.579000000
C     0.135000000    -3.430000000    -3.337000000
C    -0.909000000    -2.563000000    -3.737000000
H    -1.952000000    -2.854000000    -3.639000000
C    -0.580000000    -1.403000000    -4.464000000
O    -1.537000000    -0.474000000    -4.719000000
C     0.781000000    -1.097000000    -4.718000000
C     1.231000000     0.227000000    -5.421000000
H     2.141000000     0.131000000    -6.017000000
C     1.389000000     1.343000000    -4.368000000
C     2.577000000     1.565000000    -3.695000000
H     3.426000000     1.002000000    -4.076000000
H     0.501000000     0.522000000    -6.177000000
C     1.808000000    -2.016000000    -4.400000000
H     2.840000000    -1.824000000    -4.682000000
C     1.453000000    -3.089000000    -3.616000000
C     2.612000000    -3.968000000    -3.005000000
H     3.488000000    -3.813000000    -3.637000000
H     2.240000000    -4.993000000    -2.952000000
C     2.927000000    -3.696000000    -1.567000000
C     3.996000000    -2.872000000    -1.301000000
H     4.619000000    -2.517000000    -2.118000000
C     2.107000000    -4.180000000    -0.515000000
C     2.387000000    -3.748000000     0.790000000
H     1.661000000    -4.103000000     1.518000000
C     3.446000000    -2.908000000     1.060000000
O     3.457000000    -2.498000000     2.404000000
C     3.088000000    -1.078000000     2.725000000
C     2.388000000    -1.027000000     4.049000000
C     2.252000000     0.185000000     4.752000000
H     2.811000000     1.061000000     4.435000000
C     1.642000000    -2.143000000     4.484000000
H     1.711000000    -3.075000000     3.929000000
O     4.204000000    -0.165000000     2.648000000
H     2.313000000    -0.840000000     1.981000000
C     4.202000000    -2.384000000     0.003000000
C     5.295000000    -1.445000000     0.350000000
H     6.055000000    -1.538000000    -0.429000000
H     5.771000000    -1.736000000     1.289000000
C     4.833000000     0.071000000     0.366000000
C     4.672000000     0.724000000    -0.826000000
H     4.930000000     0.145000000    -1.710000000
C     4.291000000     0.620000000     1.485000000
C     3.883000000     1.932000000     1.518000000
H     3.515000000     2.372000000     2.441000000
C     3.813000000     2.637000000     0.362000000
O     3.100000000     3.828000000     0.351000000
C     1.706000000     3.757000000    -0.210000000
C     0.753000000     4.561000000     0.666000000
C     1.011000000     4.607000000     2.070000000
H     1.922000000     4.126000000     2.417000000
C    -0.461000000     5.168000000     0.282000000
H    -0.699000000     5.162000000    -0.779000000
O     1.621000000     4.387000000    -1.529000000
H     1.470000000     2.684000000    -0.269000000
C     4.239000000     2.026000000    -0.836000000
C     4.082000000     2.751000000    -2.140000000
H     4.849000000     2.356000000    -2.809000000
H     4.239000000     3.818000000    -1.969000000
C     2.717000000     2.621000000    -2.782000000
C     1.662000000     3.482000000    -2.528000000
C     0.482000000     3.251000000    -3.190000000
H    -0.389000000     3.863000000    -2.970000000
C     0.346000000     2.184000000    -4.044000000
O    -0.808000000     1.934000000    -4.620000000
C    -1.531000000     0.756000000    -3.946000000
H    -1.041000000     0.619000000    -2.970000000
C    -2.885000000     1.217000000    -3.378000000
C    -3.778000000     0.187000000    -3.073000000
H    -3.473000000    -0.853000000    -3.157000000
C    -3.266000000     2.557000000    -3.132000000
H    -2.539000000     3.349000000    -3.290000000
C    -4.511000000     2.803000000    -2.495000000
O    -5.015000000     4.063000000    -2.427000000
C    -5.353000000     1.729000000    -2.109000000
H    -6.390000000     1.863000000    -1.811000000
C    -4.951000000     0.419000000    -2.402000000
O    -5.852000000    -0.617000000    -2.128000000
C    -5.671000000    -1.901000000    -2.597000000
C    -5.381000000    -2.884000000    -1.633000000
H    -5.235000000    -2.573000000    -0.602000000
C    -5.621000000    -2.208000000    -3.963000000
H    -5.735000000    -1.445000000    -4.729000000
C    -5.542000000    -3.511000000    -4.391000000
H    -5.497000000    -3.752000000    -5.450000000
C    -5.365000000    -4.555000000    -3.435000000
H    -5.356000000    -5.584000000    -3.784000000
C    -5.205000000    -4.181000000    -2.086000000
O    -4.874000000    -5.265000000    -1.298000000
C    -3.709000000    -5.233000000    -0.554000000
C    -3.724000000    -5.307000000     0.853000000
H    -4.657000000    -5.363000000     1.407000000
C    -2.512000000    -5.187000000     1.588000000
O    -2.535000000    -5.181000000     2.969000000
C    -1.366000000    -5.244000000     3.681000000
C    -1.126000000    -4.116000000     4.487000000
H    -1.762000000    -3.235000000     4.473000000
C    -0.557000000    -6.389000000     3.834000000
H    -0.743000000    -7.266000000     3.220000000
C     0.490000000    -6.449000000     4.713000000
H     1.106000000    -7.332000000     4.866000000
C     0.680000000    -5.398000000     5.563000000
H     1.533000000    -5.355000000     6.235000000
C    -0.112000000    -4.224000000     5.401000000
O     0.136000000    -3.121000000     6.147000000
C     0.942000000    -2.075000000     5.704000000
C     0.822000000    -0.884000000     6.411000000
H     0.000000000    -0.835000000     7.121000000
C     1.479000000     0.263000000     5.936000000
O     1.384000000     1.397000000     6.644000000
C     1.856000000     2.628000000     6.185000000
C     0.969000000     3.328000000     5.348000000
H     0.049000000     2.857000000     5.013000000
C     3.026000000     3.207000000     6.691000000
H     3.626000000     2.585000000     7.350000000
C     3.326000000     4.554000000     6.294000000
H     4.163000000     5.076000000     6.752000000
C     2.453000000     5.225000000     5.415000000
H     2.846000000     6.224000000     5.249000000
C     1.307000000     4.629000000     4.995000000
O     0.392000000     5.386000000     4.308000000
C     0.162000000     5.277000000     2.937000000
C    -1.062000000     5.837000000     2.465000000
H    -1.756000000     6.330000000     3.141000000
C    -1.337000000     5.795000000     1.145000000
O    -2.374000000     6.496000000     0.697000000
C    -2.910000000     6.394000000    -0.542000000
C    -2.869000000     7.425000000    -1.461000000
H    -2.420000000     8.366000000    -1.154000000
C    -3.502000000     7.307000000    -2.676000000
H    -3.385000000     8.174000000    -3.322000000
C    -4.228000000     6.266000000    -3.039000000
H    -4.777000000     6.097000000    -3.962000000
C    -4.189000000     5.166000000    -2.175000000
C    -3.626000000     5.260000000    -0.883000000
H    -3.773000000     4.439000000    -0.185000000
C    -2.147000000    -1.183000000     1.324000000
H    -2.612000000    -1.965000000     1.918000000
C    -0.938000000    -1.214000000     0.658000000
H    -0.300000000    -2.083000000     0.792000000
C    -0.492000000    -0.130000000    -0.043000000
H     0.597000000    -0.112000000    -0.371000000
C    -1.307000000     0.959000000    -0.330000000
H    -0.829000000     1.840000000    -0.753000000
C    -2.648000000     0.908000000     0.174000000
H    -3.291000000     1.770000000     0.012000000
C    -3.036000000    -0.109000000     0.966000000
C    -4.447000000    -0.140000000     1.480000000
O    -5.174000000     0.828000000     1.394000000
O    -4.893000000    -1.091000000     2.126000000
O    -4.506000000    -2.494000000     4.402000000
H    -5.347000000    -2.058000000     4.538000000
H    -4.305000000    -2.344000000     3.478000000
O    -5.867000000     2.588000000     5.165000000
H    -5.818000000     3.124000000     5.957000000
H    -4.997000000     2.660000000     4.773000000
O    -7.242000000    -5.473000000     0.767000000
H    -8.125000000    -5.486000000     1.138000000
H    -6.866000000    -4.648000000     1.073000000
O    -2.946000000     2.407000000     4.663000000
H    -3.249000000     1.551000000     4.968000000
H    -2.316000000     2.205000000     3.971000000
O    -8.133000000     3.828000000     0.232000000
H    -8.823000000     4.148000000     0.814000000
H    -7.933000000     4.573000000    -0.334000000
O    -4.390000000     5.012000000     3.199000000
H    -4.948000000     4.427000000     2.687000000
H    -3.851000000     4.426000000     3.730000000
O    -7.822000000     0.982000000     0.870000000
H    -6.868000000     0.963000000     0.942000000
H    -8.028000000     1.891000000     0.649000000
O    -8.738000000    -0.064000000    -1.614000000
H    -8.371000000    -0.907000000    -1.879000000
H    -8.347000000     0.109000000    -0.758000000
O    -6.072000000    -3.437000000     1.953000000
H    -5.364000000    -2.832000000     1.730000000
H    -6.838000000    -3.087000000     1.498000000
O    -6.863000000    -0.023000000     3.612000000
H    -6.154000000    -0.029000000     2.969000000
H    -6.679000000     0.738000000     4.163000000
O    -8.394000000    -2.112000000     0.847000000
H    -9.150000000    -1.988000000     1.420000000
H    -8.082000000    -1.225000000     0.667000000
O    -9.353000000     0.356000000     3.412000000
H    -9.227000000     1.291000000     3.571000000
H    -8.467000000     0.009000000     3.307000000
O    -8.484000000    -2.104000000     5.054000000
H    -9.299000000    -1.724000000     5.383000000
H    -8.078000000    -1.399000000     4.550000000
O    -8.215000000     2.948000000     3.911000000
H    -7.341000000     2.964000000     4.301000000
H    -8.175000000     3.593000000     3.205000000
O    -0.925000000     1.611000000     2.976000000
H    -0.778000000     2.280000000     2.308000000
H    -1.081000000     0.808000000     2.481000000
O    -3.579000000    -0.072000000     5.457000000
H    -3.040000000    -0.217000000     6.234000000
H    -3.811000000    -0.952000000     5.159000000
O    -5.716000000     3.384000000     1.789000000
H    -6.376000000     3.491000000     1.103000000
H    -5.338000000     2.520000000     1.624000000
O    -5.129000000    -4.201000000     6.634000000
H    -4.726000000    -3.617000000     5.992000000
H    -4.524000000    -4.196000000     7.375000000
O   -10.721000000     0.921000000     0.154000000
H    -9.943000000     0.426000000     0.414000000
H   -10.634000000     1.024000000    -0.793000000
