215
-1444.48136
C    -1.874000000    -4.376000000     1.310000000
H    -0.960000000    -4.189000000     1.867000000
C    -1.906000000    -4.402000000    -0.057000000
C    -3.098000000    -4.349000000    -0.715000000
H    -3.162000000    -4.145000000    -1.781000000
C    -0.684000000    -4.115000000    -0.835000000
O     0.448000000    -4.771000000    -0.178000000
H    -0.490000000    -3.033000000    -0.844000000
O    -0.714000000    -4.558000000    -2.219000000
C    -0.258000000    -3.657000000    -3.181000000
C    -1.177000000    -2.731000000    -3.787000000
H    -2.212000000    -2.803000000    -3.464000000
C    -0.628000000    -1.611000000    -4.377000000
O    -1.423000000    -0.569000000    -4.715000000
C     0.709000000    -1.500000000    -4.639000000
C     1.217000000    -0.267000000    -5.382000000
H     2.140000000    -0.356000000    -5.960000000
C     1.499000000     0.902000000    -4.455000000
C     2.815000000     1.077000000    -3.845000000
H     3.524000000     0.272000000    -4.020000000
H     0.482000000     0.044000000    -6.127000000
C     1.628000000    -2.433000000    -4.092000000
H     2.705000000    -2.307000000    -4.177000000
C     1.122000000    -3.484000000    -3.298000000
C     2.132000000    -4.345000000    -2.605000000
H     3.047000000    -4.315000000    -3.201000000
H     1.757000000    -5.370000000    -2.601000000
C     2.459000000    -3.836000000    -1.214000000
C     3.708000000    -3.172000000    -0.931000000
H     4.336000000    -2.960000000    -1.793000000
C     1.637000000    -4.087000000    -0.074000000
C     2.062000000    -3.607000000     1.202000000
H     1.560000000    -3.975000000     2.094000000
C     3.176000000    -2.841000000     1.363000000
O     3.404000000    -2.285000000     2.609000000
C     3.078000000    -0.923000000     2.747000000
C     2.330000000    -0.705000000     4.064000000
C     2.263000000     0.583000000     4.501000000
H     2.782000000     1.375000000     3.967000000
C     1.542000000    -1.703000000     4.648000000
H     1.615000000    -2.732000000     4.306000000
O     4.273000000    -0.100000000     2.673000000
H     2.468000000    -0.626000000     1.881000000
C     4.017000000    -2.543000000     0.294000000
C     5.279000000    -1.645000000     0.395000000
H     5.837000000    -1.908000000    -0.506000000
H     5.901000000    -1.808000000     1.278000000
C     5.012000000    -0.121000000     0.297000000
C     5.093000000     0.521000000    -0.935000000
H     5.397000000    -0.095000000    -1.778000000
C     4.536000000     0.553000000     1.466000000
C     4.150000000     1.922000000     1.289000000
H     3.931000000     2.621000000     2.092000000
C     4.065000000     2.456000000     0.006000000
O     3.472000000     3.673000000    -0.083000000
C     2.157000000     3.809000000    -0.516000000
C     1.394000000     4.672000000     0.428000000
C     1.809000000     5.101000000     1.643000000
H     2.763000000     4.743000000     2.023000000
C     0.143000000     5.085000000     0.033000000
H    -0.221000000     4.673000000    -0.905000000
O     2.179000000     4.174000000    -1.953000000
H     1.725000000     2.801000000    -0.445000000
C     4.557000000     1.813000000    -1.108000000
C     4.564000000     2.453000000    -2.504000000
H     5.269000000     1.885000000    -3.115000000
H     4.774000000     3.524000000    -2.513000000
C     3.158000000     2.235000000    -3.149000000
C     2.081000000     3.164000000    -2.896000000
C     0.807000000     2.930000000    -3.312000000
H     0.000000000     3.580000000    -2.982000000
C     0.539000000     1.867000000    -4.112000000
O    -0.784000000     1.634000000    -4.450000000
C    -1.468000000     0.554000000    -3.847000000
H    -0.963000000     0.317000000    -2.899000000
C    -2.920000000     0.792000000    -3.545000000
C    -3.938000000    -0.152000000    -3.537000000
H    -3.838000000    -1.136000000    -3.987000000
C    -3.253000000     2.114000000    -3.100000000
H    -2.472000000     2.866000000    -3.021000000
C    -4.545000000     2.466000000    -2.730000000
O    -4.914000000     3.832000000    -2.567000000
C    -5.511000000     1.450000000    -2.771000000
H    -6.517000000     1.703000000    -2.444000000
C    -5.275000000     0.190000000    -3.238000000
O    -6.269000000    -0.724000000    -3.386000000
C    -6.129000000    -2.112000000    -3.241000000
C    -5.763000000    -2.577000000    -1.946000000
H    -5.396000000    -1.909000000    -1.171000000
C    -6.358000000    -3.002000000    -4.282000000
H    -6.575000000    -2.698000000    -5.302000000
C    -6.334000000    -4.426000000    -4.036000000
H    -6.503000000    -5.144000000    -4.834000000
C    -6.138000000    -4.859000000    -2.726000000
H    -6.149000000    -5.912000000    -2.459000000
C    -5.863000000    -3.953000000    -1.700000000
O    -5.603000000    -4.476000000    -0.474000000
C    -4.313000000    -4.501000000     0.008000000
C    -4.255000000    -4.575000000     1.363000000
H    -5.150000000    -4.450000000     1.967000000
C    -3.067000000    -4.436000000     2.045000000
O    -3.099000000    -4.301000000     3.419000000
C    -2.023000000    -4.528000000     4.221000000
C    -1.475000000    -3.391000000     4.896000000
H    -1.816000000    -2.373000000     4.729000000
C    -1.412000000    -5.801000000     4.399000000
H    -1.897000000    -6.682000000     3.987000000
C    -0.385000000    -5.941000000     5.322000000
H     0.125000000    -6.900000000     5.369000000
C     0.235000000    -4.807000000     5.858000000
H     1.204000000    -4.857000000     6.348000000
C    -0.420000000    -3.565000000     5.774000000
O     0.048000000    -2.442000000     6.436000000
C     0.834000000    -1.453000000     5.859000000
C     0.921000000    -0.169000000     6.323000000
H     0.406000000    -0.017000000     7.268000000
C     1.596000000     0.849000000     5.727000000
O     1.486000000     2.070000000     6.337000000
C     2.105000000     3.227000000     6.007000000
C     1.367000000     4.139000000     5.269000000
H     0.302000000     4.003000000     5.102000000
C     3.516000000     3.354000000     6.184000000
H     4.049000000     2.629000000     6.793000000
C     4.157000000     4.429000000     5.631000000
H     5.218000000     4.656000000     5.694000000
C     3.388000000     5.352000000     4.898000000
H     3.926000000     6.176000000     4.436000000
C     2.007000000     5.216000000     4.771000000
O     1.426000000     6.091000000     3.868000000
C     0.991000000     5.776000000     2.607000000
C    -0.313000000     5.969000000     2.238000000
H    -1.078000000     6.369000000     2.899000000
C    -0.738000000     5.727000000     0.934000000
O    -2.089000000     5.903000000     0.655000000
C    -2.597000000     5.851000000    -0.608000000
C    -2.118000000     6.654000000    -1.657000000
H    -1.295000000     7.331000000    -1.447000000
C    -2.598000000     6.576000000    -2.958000000
H    -2.097000000     7.164000000    -3.722000000
C    -3.659000000     5.784000000    -3.206000000
H    -4.137000000     5.783000000    -4.182000000
C    -4.053000000     4.813000000    -2.246000000
C    -3.594000000     4.972000000    -0.935000000
H    -3.870000000     4.320000000    -0.109000000
C    -1.813000000    -0.393000000     1.382000000
H    -2.312000000    -1.093000000     2.047000000
C    -0.463000000    -0.574000000     1.117000000
H     0.086000000    -1.419000000     1.526000000
C     0.126000000     0.353000000     0.193000000
H     1.148000000     0.222000000    -0.071000000
C    -0.649000000     1.458000000    -0.315000000
H    -0.104000000     2.035000000    -1.058000000
C    -1.978000000     1.628000000     0.023000000
H    -2.475000000     2.368000000    -0.599000000
C    -2.622000000     0.699000000     0.907000000
C    -4.154000000     0.756000000     1.188000000
O    -4.703000000     1.816000000     1.002000000
O    -4.674000000    -0.152000000     1.817000000
O   -10.805000000     0.732000000     2.156000000
H   -11.268000000     1.300000000     2.771000000
H   -10.162000000     1.304000000     1.738000000
O    -8.804000000    -4.326000000     2.295000000
H    -8.053000000    -3.754000000     2.453000000
H    -8.428000000    -5.109000000     1.893000000
O    -9.526000000    -1.362000000     3.413000000
H    -9.886000000    -0.781000000     2.743000000
H   -10.067000000    -1.200000000     4.186000000
O    -1.719000000     1.120000000     5.195000000
H    -1.502000000     1.659000000     4.434000000
H    -2.469000000     0.597000000     4.912000000
O    -3.586000000     3.637000000     4.235000000
H    -3.890000000     4.267000000     3.581000000
H    -2.782000000     3.274000000     3.864000000
O    -9.066000000     3.208000000     1.270000000
H    -9.059000000     3.217000000     2.227000000
H    -9.854000000     3.697000000     1.032000000
O    -6.066000000     2.000000000     3.403000000
H    -5.775000000     1.966000000     2.491000000
H    -5.322000000     2.370000000     3.878000000
O    -7.579000000     0.058000000     1.828000000
H    -6.627000000     0.133000000     1.893000000
H    -7.911000000     0.566000000     2.568000000
O    -5.249000000     5.474000000     2.670000000
H    -5.561000000     5.011000000     1.892000000
H    -6.005000000     5.491000000     3.257000000
O    -5.920000000    -1.851000000     6.034000000
H    -6.676000000    -1.501000000     5.562000000
H    -5.545000000    -1.092000000     6.482000000
O    -6.853000000    -2.332000000     2.498000000
H    -7.691000000    -1.879000000     2.591000000
H    -6.212000000    -1.630000000     2.386000000
O    -9.183000000    -0.956000000    -0.389000000
H    -9.575000000    -0.218000000    -0.855000000
H    -8.517000000    -0.559000000     0.172000000
O    -1.413000000     2.687000000     2.866000000
H    -1.000000000     3.516000000     2.623000000
H    -1.355000000     2.150000000     2.076000000
O    -7.121000000     5.715000000    -2.194000000
H    -6.604000000     6.514000000    -2.298000000
H    -6.761000000     5.297000000    -1.412000000
O    -3.969000000    -0.320000000     4.460000000
H    -4.375000000    -1.177000000     4.586000000
H    -4.079000000    -0.137000000     3.527000000
O    -4.820000000     4.333000000     6.537000000
H    -5.617000000     3.843000000     6.743000000
H    -4.395000000     3.822000000     5.849000000
O    -6.191000000     4.087000000     0.737000000
H    -5.733000000     3.247000000     0.769000000
H    -7.116000000     3.859000000     0.821000000
O    -4.651000000     0.411000000     7.131000000
H    -3.924000000     0.983000000     6.885000000
H    -5.393000000     1.004000000     7.253000000
O    -8.444000000     3.313000000     3.884000000
H    -8.191000000     4.217000000     4.070000000
H    -7.614000000     2.852000000     3.763000000
