215
-1442.83577
C    -0.851000000    -5.762000000     0.548000000
H     0.164000000    -5.729000000     0.938000000
C    -1.071000000    -5.170000000    -0.711000000
C    -2.355000000    -4.894000000    -1.088000000
H    -2.555000000    -4.454000000    -2.062000000
C     0.052000000    -4.595000000    -1.548000000
O     1.384000000    -5.049000000    -1.095000000
H     0.058000000    -3.538000000    -1.243000000
O    -0.068000000    -4.565000000    -3.013000000
C     0.274000000    -3.328000000    -3.577000000
C    -0.810000000    -2.430000000    -3.736000000
H    -1.833000000    -2.775000000    -3.609000000
C    -0.546000000    -1.193000000    -4.454000000
O    -1.636000000    -0.346000000    -4.617000000
C     0.797000000    -0.839000000    -4.721000000
C     1.129000000     0.470000000    -5.420000000
H     2.108000000     0.221000000    -5.835000000
C     1.245000000     1.730000000    -4.467000000
C     2.450000000     2.036000000    -3.849000000
H     3.338000000     1.457000000    -4.089000000
H     0.537000000     0.676000000    -6.315000000
C     1.836000000    -1.714000000    -4.379000000
H     2.875000000    -1.407000000    -4.472000000
C     1.596000000    -2.972000000    -3.757000000
C     2.801000000    -3.904000000    -3.357000000
H     3.723000000    -3.774000000    -3.928000000
H     2.486000000    -4.945000000    -3.460000000
C     3.178000000    -3.679000000    -1.965000000
C     4.072000000    -2.580000000    -1.713000000
H     4.444000000    -1.993000000    -2.549000000
C     2.422000000    -4.140000000    -0.933000000
C     2.745000000    -3.738000000     0.396000000
H     2.102000000    -4.100000000     1.194000000
C     3.724000000    -2.799000000     0.643000000
O     4.015000000    -2.371000000     1.922000000
C     3.329000000    -1.108000000     2.396000000
C     2.522000000    -1.154000000     3.683000000
C     2.472000000    -0.018000000     4.550000000
H     3.235000000     0.756000000     4.530000000
C     1.684000000    -2.196000000     3.888000000
H     1.631000000    -3.040000000     3.204000000
O     4.265000000    -0.030000000     2.336000000
H     2.573000000    -0.800000000     1.659000000
C     4.381000000    -2.196000000    -0.438000000
C     5.420000000    -1.052000000    -0.215000000
H     6.152000000    -1.007000000    -1.024000000
H     6.046000000    -1.244000000     0.659000000
C     4.655000000     0.265000000    -0.044000000
C     4.624000000     1.170000000    -1.151000000
H     5.050000000     0.873000000    -2.106000000
C     4.222000000     0.771000000     1.240000000
C     3.645000000     2.021000000     1.347000000
H     3.343000000     2.374000000     2.329000000
C     3.534000000     2.886000000     0.218000000
O     2.866000000     4.058000000     0.354000000
C     1.461000000     4.059000000    -0.118000000
C     0.549000000     4.812000000     0.835000000
C     0.667000000     4.573000000     2.192000000
H     1.457000000     3.968000000     2.630000000
C    -0.409000000     5.616000000     0.372000000
H    -0.525000000     5.887000000    -0.674000000
O     1.323000000     4.549000000    -1.489000000
H     1.110000000     3.024000000     0.007000000
C     4.057000000     2.462000000    -1.020000000
C     3.927000000     3.324000000    -2.264000000
H     4.796000000     3.145000000    -2.900000000
H     4.091000000     4.381000000    -2.041000000
C     2.550000000     3.124000000    -2.925000000
C     1.341000000     3.691000000    -2.536000000
C     0.164000000     3.378000000    -3.148000000
H    -0.749000000     3.856000000    -2.804000000
C     0.094000000     2.426000000    -4.156000000
O    -1.143000000     1.993000000    -4.531000000
C    -1.725000000     0.868000000    -3.827000000
H    -1.050000000     0.620000000    -2.995000000
C    -3.038000000     1.158000000    -3.029000000
C    -3.771000000     0.073000000    -2.539000000
H    -3.423000000    -0.938000000    -2.737000000
C    -3.428000000     2.433000000    -2.650000000
H    -2.985000000     3.321000000    -3.095000000
C    -4.562000000     2.581000000    -1.819000000
O    -5.072000000     3.872000000    -1.514000000
C    -5.317000000     1.511000000    -1.358000000
H    -6.113000000     1.631000000    -0.628000000
C    -4.909000000     0.232000000    -1.770000000
O    -5.562000000    -0.828000000    -1.177000000
C    -5.737000000    -2.023000000    -1.716000000
C    -5.271000000    -3.107000000    -1.005000000
H    -4.714000000    -3.025000000    -0.076000000
C    -6.228000000    -2.067000000    -3.006000000
H    -6.667000000    -1.196000000    -3.486000000
C    -6.407000000    -3.363000000    -3.505000000
H    -6.763000000    -3.461000000    -4.527000000
C    -5.958000000    -4.484000000    -2.812000000
H    -6.078000000    -5.438000000    -3.319000000
C    -5.388000000    -4.370000000    -1.538000000
O    -4.821000000    -5.447000000    -0.894000000
C    -3.519000000    -5.377000000    -0.395000000
C    -3.284000000    -5.924000000     0.817000000
H    -4.104000000    -6.374000000     1.370000000
C    -1.964000000    -6.172000000     1.283000000
O    -1.849000000    -6.657000000     2.556000000
C    -0.922000000    -6.115000000     3.443000000
C    -0.953000000    -4.782000000     3.774000000
H    -1.640000000    -4.102000000     3.275000000
C    -0.007000000    -6.981000000     4.117000000
H     0.021000000    -8.035000000     3.851000000
C     1.019000000    -6.465000000     4.981000000
H     1.731000000    -7.069000000     5.538000000
C     0.904000000    -5.109000000     5.324000000
H     1.583000000    -4.708000000     6.072000000
C    -0.102000000    -4.352000000     4.737000000
O    -0.279000000    -3.030000000     5.146000000
C     0.698000000    -2.058000000     4.935000000
C     0.770000000    -1.029000000     5.940000000
H     0.086000000    -1.031000000     6.785000000
C     1.699000000    -0.011000000     5.677000000
O     1.796000000     1.063000000     6.627000000
C     1.934000000     2.378000000     6.108000000
C     0.868000000     3.052000000     5.429000000
H    -0.019000000     2.496000000     5.136000000
C     3.093000000     3.171000000     6.440000000
H     3.854000000     2.823000000     7.134000000
C     3.188000000     4.473000000     6.038000000
H     4.012000000     5.092000000     6.384000000
C     2.090000000     5.081000000     5.397000000
H     2.099000000     6.112000000     5.054000000
C     0.920000000     4.376000000     5.066000000
O    -0.180000000     4.928000000     4.423000000
C    -0.207000000     5.115000000     3.112000000
C    -1.217000000     6.004000000     2.622000000
H    -2.017000000     6.425000000     3.226000000
C    -1.305000000     6.218000000     1.290000000
O    -2.320000000     6.979000000     0.802000000
C    -2.916000000     6.613000000    -0.380000000
C    -2.886000000     7.477000000    -1.485000000
H    -2.297000000     8.391000000    -1.500000000
C    -3.480000000     7.002000000    -2.662000000
H    -3.505000000     7.682000000    -3.510000000
C    -4.149000000     5.735000000    -2.665000000
H    -4.550000000     5.371000000    -3.607000000
C    -4.312000000     5.027000000    -1.510000000
C    -3.733000000     5.505000000    -0.309000000
H    -3.870000000     4.853000000     0.549000000
C    -1.682000000    -0.930000000     0.854000000
H    -1.806000000    -1.970000000     1.146000000
C    -0.565000000    -0.427000000     0.177000000
H     0.284000000    -1.102000000     0.103000000
C    -0.501000000     0.887000000    -0.260000000
H     0.400000000     1.239000000    -0.733000000
C    -1.556000000     1.740000000     0.023000000
H    -1.604000000     2.776000000    -0.303000000
C    -2.695000000     1.327000000     0.659000000
H    -3.467000000     1.980000000     1.058000000
C    -2.804000000    -0.014000000     1.136000000
C    -4.010000000    -0.345000000     2.016000000
O    -4.849000000     0.440000000     2.379000000
O    -4.138000000    -1.494000000     2.476000000
O    -2.914000000     4.888000000     5.318000000
H    -3.175000000     4.072000000     4.891000000
H    -1.990000000     4.993000000     5.088000000
O    -6.027000000    -2.759000000     6.797000000
H    -6.499000000    -3.077000000     7.567000000
H    -6.697000000    -2.325000000     6.268000000
O    -8.168000000     0.430000000     4.106000000
H    -9.016000000     0.469000000     3.662000000
H    -8.089000000     1.278000000     4.544000000
O    -8.544000000    -1.948000000     5.742000000
H    -8.002000000    -1.387000000     5.188000000
H    -9.444000000    -1.706000000     5.521000000
O    -2.652000000     0.081000000     5.630000000
H    -2.460000000    -0.854000000     5.560000000
H    -3.559000000     0.162000000     5.334000000
O    -2.445000000     2.384000000     4.061000000
H    -2.543000000     1.491000000     4.392000000
H    -1.548000000     2.418000000     3.729000000
O    -8.639000000     2.304000000     0.818000000
H    -9.123000000     2.168000000     0.002000000
H    -8.573000000     3.255000000     0.902000000
O    -6.139000000     5.386000000     3.427000000
H    -5.989000000     4.485000000     3.141000000
H    -5.264000000     5.773000000     3.466000000
O    -7.149000000    -1.033000000     1.924000000
H    -6.204000000    -0.914000000     2.011000000
H    -7.528000000    -0.403000000     2.537000000
O    -2.253000000    -4.213000000     6.803000000
H    -2.632000000    -3.634000000     6.141000000
H    -1.407000000    -4.472000000     6.437000000
O    -5.754000000    -3.370000000     2.889000000
H    -5.066000000    -2.790000000     2.561000000
H    -6.570000000    -2.939000000     2.638000000
O    -5.245000000    -0.073000000     5.115000000
H    -5.355000000    -0.145000000     4.167000000
H    -5.879000000     0.593000000     5.380000000
O    -8.635000000    -3.807000000     1.337000000
H    -9.488000000    -3.848000000     1.768000000
H    -8.320000000    -2.920000000     1.511000000
O    -8.664000000    -1.279000000    -0.352000000
H    -8.002000000    -1.030000000     0.292000000
H    -8.437000000    -2.176000000    -0.595000000
O    -9.997000000     0.323000000     2.340000000
H    -9.636000000     0.930000000     1.694000000
H   -10.596000000    -0.231000000     1.839000000
O    -0.344000000     1.425000000     2.755000000
H    -0.565000000     1.398000000     1.824000000
H    -0.369000000     0.509000000     3.034000000
O    -3.578000000    -2.850000000     5.025000000
H    -4.325000000    -2.634000000     5.583000000
H    -3.924000000    -2.810000000     4.134000000
O    -6.043000000     2.724000000     2.869000000
H    -6.832000000     2.265000000     2.581000000
H    -5.326000000     2.128000000     2.651000000
O    -5.249000000    -5.728000000     4.341000000
H    -5.133000000    -5.205000000     5.135000000
H    -5.338000000    -5.083000000     3.640000000
