215
-1462.34312
C    -2.903000000    -4.301000000     1.058000000
H    -1.988000000    -4.520000000     1.602000000
C    -2.691000000    -4.059000000    -0.283000000
C    -3.838000000    -3.712000000    -1.049000000
H    -3.731000000    -3.435000000    -2.094000000
C    -1.304000000    -4.105000000    -0.874000000
O    -0.507000000    -5.082000000    -0.223000000
H    -0.872000000    -3.098000000    -0.775000000
O    -1.319000000    -4.447000000    -2.278000000
C    -0.444000000    -3.702000000    -3.091000000
C    -0.975000000    -2.582000000    -3.799000000
H    -2.018000000    -2.390000000    -3.560000000
C    -0.212000000    -1.717000000    -4.460000000
O    -0.899000000    -0.591000000    -4.818000000
C     1.211000000    -1.792000000    -4.455000000
C     2.096000000    -0.769000000    -5.135000000
H     3.027000000    -1.182000000    -5.526000000
C     2.357000000     0.397000000    -4.167000000
C     3.544000000     0.361000000    -3.353000000
H     4.156000000    -0.530000000    -3.468000000
H     1.540000000    -0.306000000    -5.953000000
C     1.734000000    -2.941000000    -3.762000000
H     2.811000000    -3.092000000    -3.777000000
C     0.927000000    -3.865000000    -3.061000000
C     1.622000000    -4.987000000    -2.284000000
H     2.612000000    -5.169000000    -2.706000000
H     0.977000000    -5.868000000    -2.276000000
C     1.837000000    -4.516000000    -0.837000000
C     3.030000000    -3.955000000    -0.448000000
H     3.793000000    -3.775000000    -1.200000000
C     0.826000000    -4.704000000     0.124000000
C     0.973000000    -4.237000000     1.442000000
H     0.141000000    -4.277000000     2.141000000
C     2.134000000    -3.635000000     1.803000000
O     2.169000000    -3.036000000     3.059000000
C     2.154000000    -1.551000000     3.083000000
C     1.387000000    -0.978000000     4.262000000
C     1.765000000     0.114000000     5.007000000
H     2.713000000     0.631000000     4.875000000
C     0.204000000    -1.610000000     4.685000000
H    -0.175000000    -2.422000000     4.070000000
O     3.480000000    -1.153000000     3.296000000
H     1.690000000    -1.241000000     2.135000000
C     3.162000000    -3.421000000     0.887000000
C     4.575000000    -2.852000000     1.241000000
H     5.323000000    -3.260000000     0.558000000
H     4.944000000    -3.224000000     2.199000000
C     4.506000000    -1.368000000     1.133000000
C     4.848000000    -0.752000000    -0.078000000
H     5.214000000    -1.343000000    -0.913000000
C     4.078000000    -0.535000000     2.230000000
C     4.023000000     0.856000000     2.107000000
H     3.575000000     1.443000000     2.904000000
C     4.325000000     1.400000000     0.878000000
O     4.092000000     2.732000000     0.665000000
C     2.794000000     3.073000000    -0.028000000
C     2.051000000     4.311000000     0.513000000
C     2.037000000     4.422000000     1.908000000
H     2.446000000     3.627000000     2.527000000
C     1.455000000     5.310000000    -0.221000000
H     1.359000000     5.126000000    -1.288000000
O     3.085000000     3.444000000    -1.406000000
H     2.161000000     2.179000000     0.074000000
C     4.759000000     0.645000000    -0.198000000
C     5.072000000     1.231000000    -1.549000000
H     5.796000000     0.626000000    -2.099000000
H     5.691000000     2.129000000    -1.494000000
C     3.868000000     1.358000000    -2.445000000
C     2.969000000     2.453000000    -2.350000000
C     1.845000000     2.465000000    -3.151000000
H     1.201000000     3.335000000    -3.055000000
C     1.512000000     1.454000000    -4.017000000
O     0.297000000     1.451000000    -4.588000000
C    -0.743000000     0.629000000    -4.034000000
H    -0.350000000     0.196000000    -3.103000000
C    -2.077000000     1.401000000    -3.857000000
C    -3.252000000     0.710000000    -3.973000000
H    -3.179000000    -0.321000000    -4.308000000
C    -2.015000000     2.757000000    -3.472000000
H    -1.145000000     3.407000000    -3.531000000
C    -3.222000000     3.365000000    -3.086000000
O    -3.251000000     4.634000000    -2.601000000
C    -4.451000000     2.671000000    -3.152000000
H    -5.387000000     3.022000000    -2.725000000
C    -4.426000000     1.329000000    -3.560000000
O    -5.649000000     0.711000000    -3.742000000
C    -5.952000000    -0.687000000    -3.704000000
C    -5.855000000    -1.398000000    -2.480000000
H    -5.541000000    -0.946000000    -1.543000000
C    -6.625000000    -1.293000000    -4.799000000
H    -6.953000000    -0.747000000    -5.679000000
C    -7.014000000    -2.642000000    -4.693000000
H    -7.599000000    -3.115000000    -5.478000000
C    -6.715000000    -3.411000000    -3.590000000
H    -6.968000000    -4.465000000    -3.519000000
C    -6.239000000    -2.742000000    -2.446000000
O    -6.173000000    -3.488000000    -1.289000000
C    -5.085000000    -3.693000000    -0.484000000
C    -5.279000000    -3.990000000     0.831000000
H    -6.246000000    -4.048000000     1.324000000
C    -4.153000000    -4.220000000     1.623000000
O    -4.325000000    -4.404000000     2.956000000
C    -3.371000000    -4.301000000     3.904000000
C    -3.188000000    -3.097000000     4.602000000
H    -3.724000000    -2.159000000     4.482000000
C    -2.583000000    -5.488000000     4.214000000
H    -2.685000000    -6.449000000     3.717000000
C    -1.544000000    -5.383000000     5.117000000
H    -0.868000000    -6.209000000     5.324000000
C    -1.347000000    -4.144000000     5.726000000
H    -0.578000000    -3.988000000     6.479000000
C    -2.183000000    -3.004000000     5.543000000
O    -1.840000000    -1.727000000     5.987000000
C    -0.587000000    -1.174000000     5.754000000
C    -0.206000000     0.009000000     6.381000000
H    -0.824000000     0.443000000     7.163000000
C     0.990000000     0.647000000     6.004000000
O     1.477000000     1.675000000     6.787000000
C     2.104000000     2.756000000     6.199000000
C     1.405000000     3.613000000     5.439000000
H     0.364000000     3.404000000     5.206000000
C     3.481000000     2.981000000     6.373000000
H     4.121000000     2.306000000     6.936000000
C     4.198000000     4.030000000     5.798000000
H     5.279000000     4.118000000     5.862000000
C     3.415000000     4.945000000     5.051000000
H     3.911000000     5.793000000     4.586000000
C     2.005000000     4.744000000     4.807000000
O     1.243000000     5.560000000     3.963000000
C     1.426000000     5.484000000     2.536000000
C     0.878000000     6.536000000     1.780000000
H     0.465000000     7.417000000     2.264000000
C     0.813000000     6.368000000     0.420000000
O     0.119000000     7.263000000    -0.375000000
C    -0.592000000     6.962000000    -1.628000000
C    -0.206000000     7.554000000    -2.846000000
H     0.526000000     8.353000000    -2.935000000
C    -1.043000000     7.228000000    -3.969000000
H    -0.964000000     7.791000000    -4.895000000
C    -1.975000000     6.213000000    -3.868000000
H    -2.651000000     6.202000000    -4.719000000
C    -2.247000000     5.559000000    -2.675000000
C    -1.528000000     5.938000000    -1.604000000
H    -1.742000000     5.509000000    -0.628000000
C    -1.943000000    -0.566000000     1.332000000
H    -2.402000000    -1.225000000     2.064000000
C    -0.726000000    -0.920000000     0.824000000
H    -0.340000000    -1.903000000     1.080000000
C    -0.083000000    -0.104000000    -0.067000000
H     0.800000000    -0.428000000    -0.513000000
C    -0.559000000     1.129000000    -0.436000000
H    -0.116000000     1.687000000    -1.257000000
C    -1.808000000     1.554000000     0.192000000
H    -2.230000000     2.505000000    -0.121000000
C    -2.454000000     0.714000000     1.065000000
C    -3.757000000     1.155000000     1.693000000
O    -4.067000000     2.321000000     1.719000000
O    -4.466000000     0.326000000     2.240000000
O    -9.349000000    -0.889000000     3.504000000
H   -10.301000000    -0.844000000     3.415000000
H    -9.039000000    -0.042000000     3.182000000
O    -4.493000000     3.854000000     5.509000000
H    -4.924000000     4.705000000     5.584000000
H    -5.049000000     3.356000000     4.910000000
O    -7.880000000     0.965000000    -1.229000000
H    -7.673000000     0.100000000    -0.874000000
H    -7.381000000     1.573000000    -0.685000000
O    -4.211000000     7.068000000     1.458000000
H    -3.711000000     6.318000000     1.780000000
H    -3.584000000     7.567000000     0.935000000
O    -2.002000000     4.925000000     4.786000000
H    -2.911000000     4.803000000     5.058000000
H    -1.713000000     4.054000000     4.516000000
O    -5.881000000     2.524000000     3.755000000
H    -5.311000000     2.250000000     3.036000000
H    -6.514000000     3.115000000     3.347000000
O    -6.925000000    -0.379000000     1.818000000
H    -5.976000000    -0.297000000     1.906000000
H    -7.263000000     0.487000000     2.048000000
O    -2.833000000     4.915000000     1.998000000
H    -2.139000000     4.855000000     2.654000000
H    -3.184000000     4.026000000     1.938000000
O    -8.170000000     1.659000000     5.572000000
H    -7.467000000     2.018000000     6.114000000
H    -7.717000000     1.171000000     4.884000000
O    -4.638000000     0.902000000     7.829000000
H    -5.037000000     0.140000000     7.408000000
H    -5.358000000     1.526000000     7.927000000
O    -7.466000000    -2.142000000     5.122000000
H    -8.128000000    -1.597000000     4.696000000
H    -6.639000000    -1.693000000     4.949000000
O    -9.008000000     1.626000000     2.371000000
H    -9.323000000     2.149000000     3.109000000
H    -9.679000000     1.736000000     1.697000000
O    -5.657000000    -0.008000000     4.604000000
H    -5.518000000    -0.502000000     3.797000000
H    -5.635000000     0.909000000     4.331000000
O    -7.024000000     4.334000000     2.354000000
H    -6.940000000     5.288000000     2.333000000
H    -7.965000000     4.178000000     2.437000000
O    -1.086000000     2.703000000     3.260000000
H    -1.766000000     2.107000000     3.572000000
H    -0.711000000     2.261000000     2.498000000
O    -2.725000000     1.380000000     5.198000000
H    -3.177000000     2.218000000     5.298000000
H    -3.393000000     0.723000000     5.391000000
O    -6.800000000     5.180000000    -1.724000000
H    -6.387000000     4.370000000    -1.424000000
H    -7.550000000     5.296000000    -1.140000000
O    -8.628000000    -2.412000000     1.104000000
H    -7.974000000    -1.783000000     1.410000000
H    -9.413000000    -1.886000000     0.950000000
O    -6.479000000     2.647000000     0.176000000
H    -5.554000000     2.411000000     0.244000000
H    -6.632000000     3.232000000     0.918000000
