215
-1432.56338
C    -2.508000000    -3.674000000     1.586000000
H    -1.656000000    -4.015000000     2.168000000
C    -2.308000000    -3.762000000     0.177000000
C    -3.419000000    -3.599000000    -0.700000000
H    -3.322000000    -3.755000000    -1.771000000
C    -0.918000000    -3.963000000    -0.375000000
O    -0.009000000    -4.778000000     0.405000000
H    -0.544000000    -2.932000000    -0.455000000
O    -0.913000000    -4.366000000    -1.722000000
C    -0.177000000    -3.690000000    -2.696000000
C    -0.795000000    -2.749000000    -3.518000000
H    -1.873000000    -2.639000000    -3.441000000
C    -0.022000000    -1.971000000    -4.449000000
O    -0.562000000    -0.888000000    -5.157000000
C     1.350000000    -2.123000000    -4.443000000
C     2.234000000    -1.057000000    -5.103000000
H     3.237000000    -1.432000000    -5.316000000
C     2.348000000     0.278000000    -4.295000000
C     3.470000000     0.420000000    -3.517000000
H     4.242000000    -0.338000000    -3.625000000
H     1.727000000    -0.854000000    -6.049000000
C     1.950000000    -3.069000000    -3.592000000
H     3.037000000    -3.049000000    -3.565000000
C     1.202000000    -3.846000000    -2.781000000
C     1.961000000    -4.914000000    -1.865000000
H     2.905000000    -5.174000000    -2.348000000
H     1.435000000    -5.862000000    -1.737000000
C     2.251000000    -4.447000000    -0.481000000
C     3.457000000    -3.781000000    -0.177000000
H     4.128000000    -3.607000000    -1.014000000
C     1.249000000    -4.410000000     0.537000000
C     1.511000000    -3.864000000     1.783000000
H     0.758000000    -3.833000000     2.566000000
C     2.745000000    -3.373000000     2.054000000
O     2.980000000    -2.759000000     3.219000000
C     2.652000000    -1.327000000     3.264000000
C     1.921000000    -0.997000000     4.535000000
C     1.862000000     0.270000000     5.066000000
H     2.574000000     0.998000000     4.686000000
C     0.978000000    -1.890000000     5.070000000
H     0.933000000    -2.929000000     4.755000000
O     3.879000000    -0.622000000     3.278000000
H     2.163000000    -1.007000000     2.332000000
C     3.706000000    -3.255000000     1.077000000
C     5.019000000    -2.370000000     1.283000000
H     5.824000000    -2.704000000     0.625000000
H     5.418000000    -2.505000000     2.290000000
C     4.740000000    -0.899000000     1.006000000
C     4.909000000    -0.315000000    -0.284000000
H     5.122000000    -0.925000000    -1.158000000
C     4.239000000    -0.096000000     2.035000000
C     4.054000000     1.270000000     1.859000000
H     3.607000000     1.881000000     2.640000000
C     4.236000000     1.833000000     0.610000000
O     3.721000000     3.162000000     0.385000000
C     2.447000000     3.333000000    -0.362000000
C     1.597000000     4.436000000     0.205000000
C     1.494000000     4.417000000     1.580000000
H     2.058000000     3.662000000     2.122000000
C     0.910000000     5.361000000    -0.565000000
H     1.133000000     5.507000000    -1.619000000
O     2.827000000     3.593000000    -1.804000000
H     1.958000000     2.348000000    -0.355000000
C     4.682000000     1.032000000    -0.451000000
C     4.893000000     1.582000000    -1.878000000
H     5.648000000     1.029000000    -2.441000000
H     5.185000000     2.628000000    -1.766000000
C     3.699000000     1.561000000    -2.731000000
C     2.668000000     2.540000000    -2.652000000
C     1.531000000     2.446000000    -3.405000000
H     0.860000000     3.293000000    -3.288000000
C     1.402000000     1.356000000    -4.294000000
O     0.167000000     1.297000000    -4.920000000
C    -0.683000000     0.337000000    -4.338000000
H    -0.372000000     0.097000000    -3.310000000
C    -2.079000000     0.924000000    -4.290000000
C    -3.199000000     0.172000000    -4.488000000
H    -3.209000000    -0.872000000    -4.788000000
C    -2.193000000     2.262000000    -3.885000000
H    -1.328000000     2.776000000    -3.472000000
C    -3.498000000     2.793000000    -3.705000000
O    -3.574000000     4.074000000    -3.125000000
C    -4.673000000     2.053000000    -3.969000000
H    -5.635000000     2.499000000    -3.729000000
C    -4.484000000     0.742000000    -4.381000000
O    -5.590000000     0.022000000    -4.589000000
C    -5.855000000    -1.181000000    -4.076000000
C    -5.543000000    -1.565000000    -2.808000000
H    -5.060000000    -0.826000000    -2.175000000
C    -6.556000000    -2.000000000    -4.896000000
H    -6.917000000    -1.787000000    -5.898000000
C    -6.983000000    -3.250000000    -4.437000000
H    -7.495000000    -4.011000000    -5.021000000
C    -6.699000000    -3.602000000    -3.072000000
H    -7.111000000    -4.522000000    -2.665000000
C    -5.925000000    -2.758000000    -2.272000000
O    -5.864000000    -2.965000000    -0.912000000
C    -4.678000000    -3.127000000    -0.180000000
C    -4.779000000    -3.014000000     1.188000000
H    -5.749000000    -2.709000000     1.572000000
C    -3.736000000    -3.272000000     2.131000000
O    -3.939000000    -3.200000000     3.493000000
C    -3.140000000    -3.680000000     4.491000000
C    -2.252000000    -2.864000000     5.109000000
H    -2.048000000    -1.828000000     4.851000000
C    -3.210000000    -5.007000000     4.854000000
H    -3.743000000    -5.758000000     4.276000000
C    -2.422000000    -5.522000000     5.870000000
H    -2.486000000    -6.557000000     6.197000000
C    -1.687000000    -4.600000000     6.569000000
H    -1.235000000    -4.955000000     7.491000000
C    -1.562000000    -3.315000000     6.228000000
O    -0.552000000    -2.593000000     6.828000000
C     0.247000000    -1.611000000     6.247000000
C     0.287000000    -0.340000000     6.803000000
H    -0.214000000    -0.091000000     7.735000000
C     1.109000000     0.621000000     6.196000000
O     1.393000000     1.821000000     6.761000000
C     1.834000000     2.938000000     6.094000000
C     0.972000000     3.580000000     5.232000000
H    -0.053000000     3.228000000     5.140000000
C     3.057000000     3.593000000     6.334000000
H     3.731000000     3.196000000     7.089000000
C     3.470000000     4.670000000     5.597000000
H     4.502000000     5.001000000     5.688000000
C     2.610000000     5.162000000     4.630000000
H     2.934000000     5.874000000     3.876000000
C     1.394000000     4.562000000     4.399000000
O     0.474000000     5.096000000     3.530000000
C     0.603000000     5.325000000     2.181000000
C    -0.109000000     6.238000000     1.455000000
H    -0.836000000     6.917000000     1.893000000
C     0.051000000     6.283000000     0.045000000
O    -0.736000000     7.134000000    -0.782000000
C    -1.278000000     6.719000000    -1.997000000
C    -0.787000000     7.129000000    -3.178000000
H     0.079000000     7.780000000    -3.099000000
C    -1.313000000     6.629000000    -4.386000000
H    -0.914000000     6.882000000    -5.365000000
C    -2.282000000     5.629000000    -4.384000000
H    -2.721000000     5.307000000    -5.325000000
C    -2.643000000     5.066000000    -3.116000000
C    -2.235000000     5.700000000    -1.985000000
H    -2.743000000     5.440000000    -1.060000000
C    -1.959000000    -0.547000000     1.614000000
H    -2.238000000    -1.187000000     2.446000000
C    -0.646000000    -0.643000000     1.180000000
H     0.085000000    -1.310000000     1.629000000
C    -0.188000000     0.138000000     0.164000000
H     0.864000000     0.041000000    -0.148000000
C    -1.103000000     0.974000000    -0.522000000
H    -0.696000000     1.619000000    -1.296000000
C    -2.437000000     1.026000000    -0.122000000
H    -3.099000000     1.758000000    -0.577000000
C    -2.861000000     0.290000000     1.007000000
C    -4.270000000     0.452000000     1.630000000
O    -5.060000000     1.223000000     1.214000000
O    -4.463000000    -0.044000000     2.745000000
O    -5.202000000     2.047000000     4.205000000
H    -5.286000000     1.188000000     3.790000000
H    -5.085000000     2.655000000     3.476000000
O    -3.018000000     0.246000000     7.255000000
H    -2.914000000    -0.293000000     8.039000000
H    -3.884000000     0.643000000     7.350000000
O    -5.090000000     6.901000000     0.583000000
H    -5.423000000     6.290000000     1.240000000
H    -4.223000000     7.149000000     0.905000000
O    -3.396000000     4.226000000     4.147000000
H    -3.867000000     3.439000000     4.422000000
H    -2.603000000     3.896000000     3.725000000
O    -7.547000000    -4.885000000     3.448000000
H    -7.322000000    -5.084000000     4.357000000
H    -7.650000000    -3.933000000     3.431000000
O    -7.527000000     3.531000000     4.664000000
H    -8.234000000     2.927000000     4.436000000
H    -6.728000000     3.014000000     4.561000000
O    -7.886000000     0.058000000     1.966000000
H    -7.171000000     0.564000000     2.352000000
H    -7.918000000     0.346000000     1.054000000
O    -4.562000000     3.715000000     1.388000000
H    -3.612000000     3.613000000     1.335000000
H    -4.909000000     2.852000000     1.166000000
O    -9.060000000     1.513000000     4.130000000
H    -8.876000000     0.589000000     3.964000000
H    -9.828000000     1.705000000     3.592000000
O    -8.268000000    -2.083000000     3.369000000
H    -7.976000000    -1.560000000     2.622000000
H    -7.607000000    -1.929000000     4.043000000
O    -5.918000000    -1.212000000     4.754000000
H    -5.427000000    -0.741000000     4.079000000
H    -5.330000000    -1.915000000     5.030000000
O    -6.868000000     5.238000000     2.770000000
H    -7.074000000     4.815000000     3.603000000
H    -6.288000000     4.620000000     2.325000000
O    -1.658000000     2.801000000     2.472000000
H    -1.542000000     2.134000000     3.148000000
H    -1.099000000     2.511000000     1.750000000
O    -2.415000000     1.059000000     4.710000000
H    -3.205000000     0.688000000     4.317000000
H    -2.400000000     0.705000000     5.599000000
O    -8.255000000     0.151000000    -1.671000000
H    -8.547000000     0.133000000    -2.582000000
H    -8.554000000    -0.683000000    -1.307000000
O    -8.360000000    -4.428000000     0.303000000
H    -8.005000000    -4.321000000     1.185000000
H    -8.532000000    -5.366000000     0.226000000
O    -5.494000000     1.824000000     7.621000000
H    -5.185000000     1.997000000     6.732000000
H    -6.250000000     1.248000000     7.504000000
O    -6.481000000     1.959000000    -0.791000000
H    -7.154000000     1.346000000    -1.086000000
H    -6.142000000     1.573000000     0.017000000
O    -5.895000000     4.607000000    -1.060000000
H    -5.316000000     4.469000000    -0.311000000
H    -6.205000000     3.731000000    -1.288000000
