215
-1440.25281
C    -2.633000000    -3.985000000     1.469000000
H    -1.780000000    -4.416000000     1.987000000
C    -2.512000000    -3.676000000     0.068000000
C    -3.546000000    -2.928000000    -0.544000000
H    -3.517000000    -2.780000000    -1.620000000
C    -1.169000000    -3.960000000    -0.603000000
O    -0.335000000    -4.901000000     0.094000000
H    -0.610000000    -3.014000000    -0.658000000
O    -1.352000000    -4.211000000    -2.049000000
C    -0.519000000    -3.511000000    -3.017000000
C    -1.108000000    -2.398000000    -3.678000000
H    -2.193000000    -2.406000000    -3.609000000
C    -0.330000000    -1.590000000    -4.484000000
O    -0.991000000    -0.487000000    -5.010000000
C     1.057000000    -1.779000000    -4.532000000
C     1.877000000    -0.774000000    -5.293000000
H     2.761000000    -1.246000000    -5.726000000
C     2.213000000     0.441000000    -4.437000000
C     3.393000000     0.363000000    -3.693000000
H     4.068000000    -0.463000000    -3.900000000
H     1.315000000    -0.479000000    -6.181000000
C     1.655000000    -2.850000000    -3.842000000
H     2.719000000    -3.074000000    -3.858000000
C     0.843000000    -3.646000000    -3.011000000
C     1.477000000    -4.773000000    -2.270000000
H     2.385000000    -5.073000000    -2.798000000
H     0.874000000    -5.680000000    -2.203000000
C     1.817000000    -4.236000000    -0.842000000
C     3.123000000    -3.819000000    -0.577000000
H     3.810000000    -3.642000000    -1.400000000
C     0.929000000    -4.435000000     0.244000000
C     1.351000000    -4.023000000     1.522000000
H     0.679000000    -4.181000000     2.361000000
C     2.616000000    -3.445000000     1.731000000
O     2.733000000    -2.953000000     2.920000000
C     2.613000000    -1.472000000     3.013000000
C     1.694000000    -1.032000000     4.143000000
C     1.584000000     0.298000000     4.521000000
H     2.196000000     1.042000000     4.016000000
C     0.880000000    -1.932000000     4.851000000
H     0.853000000    -2.965000000     4.512000000
O     3.935000000    -0.814000000     3.038000000
H     2.060000000    -1.193000000     2.104000000
C     3.488000000    -3.368000000     0.656000000
C     4.834000000    -2.642000000     0.856000000
H     5.564000000    -2.983000000     0.120000000
H     5.267000000    -2.990000000     1.796000000
C     4.755000000    -1.111000000     0.734000000
C     4.849000000    -0.551000000    -0.512000000
H     4.999000000    -1.206000000    -1.367000000
C     4.473000000    -0.311000000     1.821000000
C     4.249000000     1.033000000     1.604000000
H     3.935000000     1.689000000     2.411000000
C     4.435000000     1.626000000     0.387000000
O     4.135000000     2.944000000     0.223000000
C     2.851000000     3.252000000    -0.467000000
C     2.125000000     4.291000000     0.262000000
C     2.529000000     4.759000000     1.519000000
H     3.376000000     4.306000000     2.027000000
C     0.871000000     4.756000000    -0.225000000
H     0.436000000     4.329000000    -1.125000000
O     3.185000000     3.556000000    -1.839000000
H     2.275000000     2.316000000    -0.473000000
C     4.720000000     0.800000000    -0.716000000
C     5.023000000     1.386000000    -2.067000000
H     5.797000000     0.800000000    -2.567000000
H     5.412000000     2.404000000    -2.007000000
C     3.807000000     1.425000000    -2.949000000
C     2.944000000     2.526000000    -2.797000000
C     1.772000000     2.529000000    -3.451000000
H     1.124000000     3.387000000    -3.288000000
C     1.349000000     1.520000000    -4.297000000
O     0.139000000     1.619000000    -4.888000000
C    -0.896000000     0.786000000    -4.327000000
H    -0.657000000     0.665000000    -3.260000000
C    -2.281000000     1.256000000    -4.300000000
C    -3.412000000     0.438000000    -4.459000000
H    -3.273000000    -0.627000000    -4.625000000
C    -2.462000000     2.623000000    -4.160000000
H    -1.605000000     3.269000000    -3.989000000
C    -3.772000000     3.135000000    -3.858000000
O    -3.975000000     4.393000000    -3.460000000
C    -4.906000000     2.257000000    -4.039000000
H    -5.882000000     2.711000000    -3.891000000
C    -4.705000000     0.930000000    -4.367000000
O    -5.887000000     0.206000000    -4.565000000
C    -6.130000000    -0.905000000    -3.816000000
C    -5.791000000    -0.894000000    -2.513000000
H    -5.380000000     0.015000000    -2.083000000
C    -6.572000000    -2.092000000    -4.437000000
H    -6.765000000    -2.099000000    -5.507000000
C    -6.770000000    -3.186000000    -3.597000000
H    -7.190000000    -4.090000000    -4.030000000
C    -6.503000000    -3.154000000    -2.241000000
H    -6.695000000    -4.036000000    -1.636000000
C    -5.896000000    -2.041000000    -1.690000000
O    -5.646000000    -1.982000000    -0.365000000
C    -4.627000000    -2.602000000     0.233000000
C    -4.670000000    -2.833000000     1.592000000
H    -5.519000000    -2.700000000     2.258000000
C    -3.707000000    -3.600000000     2.205000000
O    -3.926000000    -3.974000000     3.489000000
C    -2.890000000    -4.287000000     4.389000000
C    -2.143000000    -3.333000000     4.982000000
H    -2.191000000    -2.323000000     4.582000000
C    -2.778000000    -5.601000000     4.933000000
H    -3.501000000    -6.337000000     4.590000000
C    -1.888000000    -5.856000000     5.956000000
H    -1.792000000    -6.807000000     6.474000000
C    -1.095000000    -4.862000000     6.549000000
H    -0.322000000    -5.117000000     7.270000000
C    -1.308000000    -3.533000000     6.045000000
O    -0.580000000    -2.480000000     6.609000000
C     0.153000000    -1.540000000     5.938000000
C     0.177000000    -0.242000000     6.395000000
H    -0.306000000    -0.025000000     7.344000000
C     0.826000000     0.714000000     5.608000000
O     0.818000000     2.028000000     6.059000000
C     1.730000000     2.926000000     5.750000000
C     1.480000000     3.958000000     4.866000000
H     0.473000000     4.116000000     4.490000000
C     3.071000000     2.833000000     6.253000000
H     3.341000000     2.031000000     6.935000000
C     3.990000000     3.797000000     5.887000000
H     4.939000000     3.756000000     6.415000000
C     3.696000000     4.854000000     5.019000000
H     4.440000000     5.527000000     4.600000000
C     2.428000000     4.882000000     4.534000000
O     2.046000000     5.861000000     3.584000000
C     1.683000000     5.517000000     2.330000000
C     0.490000000     5.927000000     1.815000000
H    -0.079000000     6.607000000     2.444000000
C     0.032000000     5.578000000     0.536000000
O    -1.261000000     5.977000000     0.197000000
C    -1.623000000     6.095000000    -1.127000000
C    -1.274000000     7.186000000    -1.943000000
H    -0.617000000     7.998000000    -1.641000000
C    -1.598000000     7.177000000    -3.274000000
H    -1.327000000     7.978000000    -3.957000000
C    -2.416000000     6.241000000    -3.768000000
H    -2.812000000     6.327000000    -4.776000000
C    -2.957000000     5.247000000    -2.908000000
C    -2.432000000     5.110000000    -1.637000000
H    -2.690000000     4.223000000    -1.064000000
C    -1.249000000    -1.004000000     1.615000000
H    -1.029000000    -1.616000000     2.486000000
C    -0.255000000    -1.059000000     0.596000000
H     0.554000000    -1.783000000     0.665000000
C    -0.338000000    -0.296000000    -0.518000000
H     0.365000000    -0.312000000    -1.329000000
C    -1.391000000     0.648000000    -0.604000000
H    -1.517000000     1.326000000    -1.444000000
C    -2.379000000     0.725000000     0.362000000
H    -3.195000000     1.424000000     0.197000000
C    -2.321000000    -0.100000000     1.508000000
C    -3.324000000     0.021000000     2.609000000
O    -4.221000000     0.814000000     2.364000000
O    -3.059000000    -0.324000000     3.730000000
O    -4.637000000     2.445000000     5.349000000
H    -4.775000000     2.250000000     4.422000000
H    -3.824000000     1.992000000     5.571000000
O    -5.535000000     5.676000000     3.247000000
H    -6.063000000     5.170000000     2.629000000
H    -4.702000000     5.206000000     3.290000000
O    -1.257000000     2.637000000     8.235000000
H    -1.662000000     1.943000000     7.715000000
H    -1.337000000     3.421000000     7.692000000
O    -2.023000000     4.365000000     6.330000000
H    -2.711000000     3.702000000     6.396000000
H    -2.470000000     5.192000000     6.514000000
O    -6.983000000     3.199000000     6.883000000
H    -7.712000000     2.588000000     6.769000000
H    -6.299000000     2.866000000     6.302000000
O    -6.065000000     0.622000000     0.458000000
H    -5.656000000     0.936000000     1.265000000
H    -5.591000000    -0.183000000     0.248000000
O    -8.062000000    -1.457000000     1.350000000
H    -7.346000000    -1.907000000     0.901000000
H    -8.819000000    -2.030000000     1.227000000
O    -4.009000000     3.407000000     2.535000000
H    -3.277000000     3.470000000     3.149000000
H    -4.032000000     2.484000000     2.283000000
O    -9.231000000    -0.576000000     4.266000000
H    -8.470000000    -1.057000000     4.592000000
H    -9.980000000    -1.123000000     4.504000000
O    -8.433000000     1.389000000     2.395000000
H    -8.198000000     0.684000000     1.792000000
H    -8.781000000     0.940000000     3.166000000
O    -7.547000000    -2.739000000     4.272000000
H    -7.492000000    -2.258000000     3.446000000
H    -6.788000000    -2.442000000     4.774000000
O    -5.238000000    -3.138000000     7.836000000
H    -5.326000000    -3.092000000     6.884000000
H    -4.620000000    -2.440000000     8.053000000
O    -5.468000000    -0.944000000     4.709000000
H    -4.527000000    -0.901000000     4.539000000
H    -5.808000000    -0.109000000     4.387000000
O    -7.705000000     4.123000000     1.845000000
H    -7.457000000     4.188000000     0.923000000
H    -8.156000000     3.282000000     1.914000000
O    -1.970000000     2.596000000     3.924000000
H    -2.107000000     1.697000000     3.624000000
H    -1.298000000     2.522000000     4.602000000
O    -2.810000000     0.665000000     6.441000000
H    -2.922000000     0.249000000     5.586000000
H    -2.782000000    -0.065000000     7.060000000
O    -5.238000000     1.191000000     8.735000000
H    -6.137000000     0.949000000     8.514000000
H    -4.698000000     0.693000000     8.121000000
O    -7.074000000     3.134000000    -0.769000000
H    -7.721000000     2.939000000    -1.447000000
H    -6.739000000     2.278000000    -0.503000000
O    -4.870000000     4.587000000     0.083000000
H    -4.691000000     4.206000000     0.942000000
H    -5.480000000     3.975000000    -0.328000000
