215
-1444.48970
C    -2.076000000    -4.019000000     1.715000000
H    -1.160000000    -4.423000000     2.139000000
C    -2.150000000    -3.677000000     0.344000000
C    -3.452000000    -3.403000000    -0.185000000
H    -3.544000000    -3.270000000    -1.260000000
C    -0.833000000    -3.665000000    -0.535000000
O     0.020000000    -4.679000000    -0.064000000
H    -0.387000000    -2.662000000    -0.466000000
O    -1.185000000    -4.078000000    -1.836000000
C    -0.585000000    -3.432000000    -2.879000000
C    -1.380000000    -2.586000000    -3.609000000
H    -2.440000000    -2.478000000    -3.395000000
C    -0.793000000    -1.574000000    -4.320000000
O    -1.607000000    -0.581000000    -4.805000000
C     0.585000000    -1.652000000    -4.609000000
C     1.254000000    -0.556000000    -5.468000000
H     2.207000000    -0.948000000    -5.831000000
C     1.646000000     0.678000000    -4.667000000
C     2.911000000     0.610000000    -4.134000000
H     3.551000000    -0.259000000    -4.260000000
H     0.694000000    -0.253000000    -6.355000000
C     1.384000000    -2.579000000    -3.963000000
H     2.459000000    -2.533000000    -4.115000000
C     0.828000000    -3.463000000    -3.088000000
C     1.657000000    -4.562000000    -2.355000000
H     2.540000000    -4.810000000    -2.948000000
H     1.098000000    -5.500000000    -2.351000000
C     2.127000000    -4.046000000    -1.038000000
C     3.479000000    -3.518000000    -0.805000000
H     4.101000000    -3.282000000    -1.665000000
C     1.321000000    -4.227000000     0.084000000
C     1.712000000    -3.805000000     1.337000000
H     1.060000000    -3.934000000     2.197000000
C     2.978000000    -3.285000000     1.541000000
O     3.294000000    -2.798000000     2.838000000
C     2.979000000    -1.368000000     2.951000000
C     2.343000000    -1.084000000     4.324000000
C     2.271000000     0.253000000     4.752000000
H     2.772000000     1.105000000     4.299000000
C     1.606000000    -2.088000000     4.927000000
H     1.626000000    -3.100000000     4.531000000
O     4.182000000    -0.549000000     2.722000000
H     2.250000000    -1.057000000     2.188000000
C     3.886000000    -3.168000000     0.437000000
C     5.090000000    -2.339000000     0.614000000
H     5.993000000    -2.591000000     0.054000000
H     5.549000000    -2.466000000     1.597000000
C     4.743000000    -0.883000000     0.387000000
C     4.704000000    -0.422000000    -0.944000000
H     4.968000000    -1.100000000    -1.752000000
C     4.412000000    -0.084000000     1.478000000
C     4.175000000     1.272000000     1.310000000
H     3.778000000     1.901000000     2.102000000
C     4.240000000     1.734000000    -0.012000000
O     3.810000000     2.975000000    -0.165000000
C     2.532000000     3.213000000    -0.759000000
C     1.765000000     4.274000000     0.016000000
C     2.121000000     4.609000000     1.348000000
H     3.062000000     4.215000000     1.723000000
C     0.515000000     4.728000000    -0.499000000
H     0.128000000     4.433000000    -1.471000000
O     2.620000000     3.592000000    -2.135000000
H     1.973000000     2.268000000    -0.693000000
C     4.418000000     0.937000000    -1.166000000
C     4.688000000     1.506000000    -2.542000000
H     5.242000000     0.690000000    -3.010000000
H     5.189000000     2.476000000    -2.566000000
C     3.388000000     1.632000000    -3.291000000
C     2.431000000     2.638000000    -3.042000000
C     1.147000000     2.715000000    -3.593000000
H     0.452000000     3.528000000    -3.400000000
C     0.674000000     1.638000000    -4.370000000
O    -0.676000000     1.663000000    -4.727000000
C    -1.569000000     0.668000000    -4.043000000
H    -1.258000000     0.414000000    -3.019000000
C    -2.976000000     1.293000000    -4.036000000
C    -4.137000000     0.551000000    -3.910000000
H    -3.950000000    -0.519000000    -3.860000000
C    -3.203000000     2.639000000    -3.926000000
H    -2.311000000     3.260000000    -3.963000000
C    -4.413000000     3.241000000    -3.712000000
O    -4.554000000     4.593000000    -3.567000000
C    -5.572000000     2.475000000    -3.533000000
H    -6.566000000     2.899000000    -3.417000000
C    -5.406000000     1.086000000    -3.646000000
O    -6.516000000     0.269000000    -3.285000000
C    -6.527000000    -1.008000000    -2.796000000
C    -6.099000000    -1.252000000    -1.526000000
H    -5.858000000    -0.432000000    -0.855000000
C    -6.919000000    -2.087000000    -3.646000000
H    -7.343000000    -1.902000000    -4.630000000
C    -7.093000000    -3.308000000    -3.097000000
H    -7.608000000    -4.079000000    -3.666000000
C    -6.670000000    -3.610000000    -1.796000000
H    -6.886000000    -4.592000000    -1.382000000
C    -6.096000000    -2.583000000    -1.106000000
O    -5.730000000    -2.852000000     0.240000000
C    -4.503000000    -3.247000000     0.717000000
C    -4.387000000    -3.534000000     2.047000000
H    -5.172000000    -3.278000000     2.755000000
C    -3.158000000    -3.903000000     2.537000000
O    -3.052000000    -4.057000000     3.936000000
C    -1.878000000    -4.410000000     4.591000000
C    -1.355000000    -3.400000000     5.339000000
H    -1.735000000    -2.391000000     5.478000000
C    -1.408000000    -5.729000000     4.688000000
H    -1.812000000    -6.509000000     4.048000000
C    -0.369000000    -6.013000000     5.574000000
H     0.026000000    -7.024000000     5.510000000
C     0.218000000    -4.994000000     6.364000000
H     0.954000000    -5.316000000     7.097000000
C    -0.250000000    -3.724000000     6.189000000
O     0.342000000    -2.708000000     6.931000000
C     1.001000000    -1.755000000     6.202000000
C     0.917000000    -0.410000000     6.643000000
H     0.345000000    -0.203000000     7.543000000
C     1.594000000     0.605000000     5.985000000
O     1.492000000     1.905000000     6.475000000
C     2.174000000     2.880000000     5.787000000
C     1.503000000     3.812000000     4.976000000
H     0.449000000     3.736000000     4.720000000
C     3.505000000     3.126000000     6.090000000
H     3.939000000     2.659000000     6.971000000
C     4.299000000     4.004000000     5.278000000
H     5.384000000     4.067000000     5.297000000
C     3.632000000     4.910000000     4.491000000
H     4.105000000     5.733000000     3.962000000
C     2.259000000     4.796000000     4.309000000
O     1.583000000     5.720000000     3.488000000
C     1.259000000     5.381000000     2.161000000
C     0.012000000     5.759000000     1.591000000
H    -0.635000000     6.331000000     2.251000000
C    -0.388000000     5.427000000     0.317000000
O    -1.625000000     5.942000000    -0.097000000
C    -1.991000000     5.973000000    -1.407000000
C    -1.205000000     6.763000000    -2.308000000
H    -0.289000000     7.252000000    -1.985000000
C    -1.715000000     6.958000000    -3.609000000
H    -1.191000000     7.603000000    -4.309000000
C    -2.784000000     6.200000000    -4.026000000
H    -3.173000000     6.408000000    -5.020000000
C    -3.496000000     5.372000000    -3.134000000
C    -3.091000000     5.247000000    -1.824000000
H    -3.494000000     4.429000000    -1.232000000
C    -2.086000000    -0.434000000     1.572000000
H    -2.661000000    -0.881000000     2.379000000
C    -0.765000000    -0.780000000     1.326000000
H    -0.301000000    -1.573000000     1.907000000
C     0.003000000    -0.170000000     0.335000000
H     0.975000000    -0.536000000     0.119000000
C    -0.579000000     0.773000000    -0.494000000
H     0.020000000     1.284000000    -1.244000000
C    -1.930000000     1.151000000    -0.237000000
H    -2.288000000     1.989000000    -0.830000000
C    -2.639000000     0.577000000     0.814000000
C    -4.068000000     1.049000000     1.238000000
O    -4.432000000     2.018000000     0.651000000
O    -4.802000000     0.561000000     2.076000000
O    -4.701000000    -0.756000000     4.356000000
H    -4.901000000    -0.194000000     3.608000000
H    -5.176000000    -0.361000000     5.087000000
O    -4.861000000    -1.901000000     7.063000000
H    -5.729000000    -1.549000000     7.262000000
H    -4.869000000    -2.035000000     6.116000000
O    -7.592000000     0.757000000     1.623000000
H    -7.539000000     1.515000000     1.040000000
H    -6.688000000     0.456000000     1.708000000
O    -7.444000000    -0.474000000     4.712000000
H    -7.105000000    -0.663000000     3.837000000
H    -7.868000000    -1.287000000     4.986000000
O    -4.322000000     4.737000000     1.090000000
H    -4.753000000     5.017000000     0.282000000
H    -4.078000000     3.826000000     0.928000000
O    -7.650000000    -4.797000000     1.498000000
H    -7.788000000    -5.668000000     1.125000000
H    -6.992000000    -4.395000000     0.931000000
O    -9.095000000     3.458000000     3.928000000
H    -8.383000000     3.056000000     4.426000000
H    -8.902000000     4.396000000     3.950000000
O    -4.055000000     7.217000000     2.596000000
H    -4.145000000     7.076000000     3.539000000
H    -3.759000000     6.374000000     2.255000000
O    -1.689000000     0.299000000     4.963000000
H    -2.420000000    -0.014000000     4.430000000
H    -1.186000000     0.861000000     4.373000000
O    -5.916000000     3.185000000     3.093000000
H    -6.004000000     3.825000000     2.387000000
H    -5.354000000     2.501000000     2.728000000
O    -2.582000000     3.047000000     6.038000000
H    -2.328000000     3.943000000     5.816000000
H    -1.896000000     2.501000000     5.653000000
O    -0.749000000     1.845000000     2.816000000
H    -0.797000000     1.236000000     2.079000000
H    -0.937000000     2.701000000     2.432000000
O    -4.886000000     2.215000000     6.952000000
H    -5.455000000     2.947000000     6.714000000
H    -4.014000000     2.486000000     6.666000000
O    -9.430000000     2.892000000    -1.665000000
H    -9.313000000     3.488000000    -2.404000000
H    -8.571000000     2.864000000    -1.242000000
O    -9.536000000    -0.844000000     0.227000000
H    -9.712000000    -0.477000000    -0.640000000
H    -8.761000000    -0.373000000     0.533000000
O    -7.032000000     2.054000000     5.309000000
H    -6.480000000     2.442000000     4.630000000
H    -7.370000000     1.251000000     4.912000000
O    -6.583000000     5.488000000    -0.495000000
H    -6.427000000     6.402000000    -0.259000000
H    -6.909000000     5.525000000    -1.394000000
O   -10.266000000     1.842000000     2.299000000
H    -9.545000000     1.223000000     2.187000000
H    -9.918000000     2.512000000     2.887000000
O    -6.986000000     2.817000000     0.106000000
H    -6.758000000     3.742000000     0.014000000
H    -6.174000000     2.397000000     0.389000000
