215
-1477.91008
C    -0.869000000    -5.817000000    -0.061000000
H     0.081000000    -6.318000000     0.106000000
C    -1.084000000    -4.846000000    -1.022000000
C    -2.331000000    -4.296000000    -1.295000000
H    -2.379000000    -3.381000000    -1.880000000
C     0.104000000    -4.164000000    -1.695000000
O     1.366000000    -4.843000000    -1.455000000
H     0.143000000    -3.160000000    -1.247000000
O    -0.082000000    -3.975000000    -3.136000000
C     0.324000000    -2.748000000    -3.709000000
C    -0.711000000    -1.819000000    -4.035000000
H    -1.772000000    -2.044000000    -3.972000000
C    -0.468000000    -0.549000000    -4.607000000
O    -1.465000000     0.427000000    -4.720000000
C     0.942000000    -0.238000000    -4.767000000
C     1.330000000     1.126000000    -5.205000000
H     2.301000000     1.101000000    -5.704000000
C     1.423000000     2.156000000    -4.081000000
C     2.676000000     2.233000000    -3.472000000
H     3.535000000     1.690000000    -3.857000000
H     0.661000000     1.524000000    -5.970000000
C     1.953000000    -1.154000000    -4.408000000
H     3.015000000    -0.930000000    -4.472000000
C     1.645000000    -2.379000000    -3.936000000
C     2.832000000    -3.300000000    -3.587000000
H     3.668000000    -3.137000000    -4.270000000
H     2.442000000    -4.301000000    -3.785000000
C     3.097000000    -3.268000000    -2.107000000
C     4.109000000    -2.391000000    -1.718000000
H     4.669000000    -1.850000000    -2.476000000
C     2.425000000    -4.030000000    -1.123000000
C     2.802000000    -3.904000000     0.193000000
H     2.176000000    -4.387000000     0.939000000
C     3.752000000    -2.981000000     0.548000000
O     3.699000000    -2.607000000     1.901000000
C     3.051000000    -1.394000000     2.231000000
C     2.220000000    -1.559000000     3.523000000
C     2.127000000    -0.602000000     4.542000000
H     2.767000000     0.276000000     4.509000000
C     1.384000000    -2.695000000     3.584000000
H     1.367000000    -3.424000000     2.778000000
O     4.183000000    -0.468000000     2.461000000
H     2.487000000    -1.051000000     1.351000000
C     4.498000000    -2.260000000    -0.394000000
C     5.478000000    -1.225000000    -0.016000000
H     6.206000000    -1.049000000    -0.811000000
H     6.090000000    -1.628000000     0.794000000
C     4.911000000     0.152000000     0.275000000
C     4.922000000     1.101000000    -0.785000000
H     5.350000000     0.897000000    -1.763000000
C     4.367000000     0.488000000     1.521000000
C     3.672000000     1.725000000     1.684000000
H     3.123000000     1.942000000     2.597000000
C     3.659000000     2.655000000     0.685000000
O     3.001000000     3.830000000     0.926000000
C     1.633000000     3.995000000     0.474000000
C     0.729000000     4.744000000     1.491000000
C     0.778000000     4.432000000     2.876000000
H     1.686000000     3.920000000     3.184000000
C    -0.313000000     5.619000000     1.005000000
H    -0.375000000     5.917000000    -0.038000000
O     1.630000000     4.664000000    -0.851000000
H     1.238000000     3.005000000     0.200000000
C     4.300000000     2.330000000    -0.543000000
C     4.132000000     3.317000000    -1.735000000
H     4.924000000     3.228000000    -2.481000000
H     4.193000000     4.337000000    -1.350000000
C     2.797000000     3.179000000    -2.395000000
C     1.689000000     3.927000000    -1.993000000
C     0.512000000     3.832000000    -2.673000000
H    -0.303000000     4.438000000    -2.285000000
C     0.360000000     2.946000000    -3.717000000
O    -0.896000000     2.672000000    -4.168000000
C    -1.566000000     1.469000000    -3.706000000
H    -1.024000000     1.156000000    -2.801000000
C    -3.027000000     1.719000000    -3.368000000
C    -4.023000000     0.825000000    -3.543000000
H    -3.641000000    -0.120000000    -3.921000000
C    -3.438000000     2.928000000    -2.788000000
H    -2.671000000     3.689000000    -2.672000000
C    -4.705000000     3.056000000    -2.098000000
O    -5.010000000     4.056000000    -1.207000000
C    -5.635000000     2.019000000    -2.211000000
H    -6.625000000     2.152000000    -1.785000000
C    -5.266000000     0.885000000    -2.920000000
O    -6.169000000    -0.187000000    -3.020000000
C    -5.787000000    -1.514000000    -3.000000000
C    -5.328000000    -2.085000000    -1.836000000
H    -5.003000000    -1.498000000    -0.981000000
C    -6.100000000    -2.295000000    -4.129000000
H    -6.515000000    -1.809000000    -5.008000000
C    -5.894000000    -3.669000000    -4.121000000
H    -6.146000000    -4.324000000    -4.951000000
C    -5.324000000    -4.243000000    -2.981000000
H    -5.167000000    -5.296000000    -2.763000000
C    -5.088000000    -3.492000000    -1.776000000
O    -4.612000000    -4.051000000    -0.610000000
C    -3.450000000    -4.705000000    -0.534000000
C    -3.266000000    -5.746000000     0.408000000
H    -4.066000000    -5.914000000     1.125000000
C    -1.991000000    -6.350000000     0.593000000
O    -1.896000000    -7.180000000     1.693000000
C    -1.043000000    -6.821000000     2.694000000
C    -1.217000000    -5.598000000     3.250000000
H    -2.100000000    -4.983000000     3.097000000
C     0.073000000    -7.643000000     2.996000000
H     0.246000000    -8.575000000     2.465000000
C     0.978000000    -7.157000000     3.934000000
H     1.867000000    -7.775000000     4.036000000
C     0.852000000    -5.854000000     4.412000000
H     1.567000000    -5.366000000     5.070000000
C    -0.188000000    -5.048000000     3.985000000
O    -0.425000000    -3.864000000     4.631000000
C     0.565000000    -2.870000000     4.702000000
C     0.434000000    -1.903000000     5.673000000
H    -0.152000000    -2.065000000     6.574000000
C     1.171000000    -0.704000000     5.545000000
O     1.022000000     0.176000000     6.616000000
C     1.267000000     1.543000000     6.569000000
C     0.392000000     2.395000000     5.800000000
H    -0.458000000     1.904000000     5.331000000
C     2.373000000     2.066000000     7.278000000
H     3.028000000     1.410000000     7.845000000
C     2.629000000     3.414000000     7.105000000
H     3.296000000     3.943000000     7.781000000
C     1.782000000     4.236000000     6.344000000
H     1.958000000     5.304000000     6.238000000
C     0.653000000     3.732000000     5.689000000
O    -0.176000000     4.606000000     5.076000000
C    -0.248000000     4.870000000     3.685000000
C    -1.284000000     5.594000000     3.245000000
H    -2.013000000     5.919000000     3.984000000
C    -1.295000000     6.053000000     1.949000000
O    -2.288000000     6.906000000     1.545000000
C    -2.955000000     6.743000000     0.353000000
C    -2.621000000     7.437000000    -0.761000000
H    -1.840000000     8.192000000    -0.718000000
C    -3.220000000     7.177000000    -1.989000000
H    -3.056000000     7.821000000    -2.848000000
C    -4.108000000     6.080000000    -2.112000000
H    -4.661000000     5.883000000    -3.027000000
C    -4.312000000     5.246000000    -1.024000000
C    -3.825000000     5.617000000     0.236000000
H    -3.816000000     4.823000000     0.978000000
C    -2.151000000    -2.110000000     1.545000000
H    -2.516000000    -2.860000000     2.243000000
C    -0.881000000    -2.180000000     1.020000000
H    -0.185000000    -2.931000000     1.384000000
C    -0.375000000    -1.289000000     0.116000000
H     0.606000000    -1.481000000    -0.367000000
C    -1.176000000    -0.173000000    -0.222000000
H    -0.818000000     0.532000000    -0.968000000
C    -2.503000000    -0.098000000     0.214000000
H    -3.131000000     0.730000000    -0.105000000
C    -2.989000000    -1.079000000     1.159000000
C    -4.429000000    -0.981000000     1.603000000
O    -5.080000000     0.000000000     1.423000000
O    -4.775000000    -1.857000000     2.420000000
O    -8.711000000    -0.135000000     3.060000000
H    -7.903000000    -0.319000000     3.539000000
H    -8.545000000    -0.463000000     2.176000000
O    -6.880000000     2.039000000     1.471000000
H    -6.399000000     2.841000000     1.264000000
H    -6.208000000     1.358000000     1.499000000
O    -4.053000000    -3.325000000     4.492000000
H    -4.253000000    -2.608000000     3.891000000
H    -4.427000000    -4.100000000     4.073000000
O    -4.856000000    -0.202000000     6.159000000
H    -4.873000000     0.454000000     6.856000000
H    -4.112000000    -0.763000000     6.375000000
O    -8.820000000     2.562000000     3.515000000
H    -7.915000000     2.728000000     3.250000000
H    -8.951000000     1.628000000     3.350000000
O    -5.651000000    -5.398000000     3.492000000
H    -5.377000000    -6.296000000     3.303000000
H    -6.597000000    -5.402000000     3.351000000
O    -8.113000000    -3.287000000     3.568000000
H    -7.841000000    -2.495000000     4.031000000
H    -8.128000000    -3.966000000     4.243000000
O    -6.537000000    -1.016000000     4.318000000
H    -5.897000000    -0.702000000     4.958000000
H    -6.008000000    -1.313000000     3.577000000
O    -6.574000000    -3.432000000     1.327000000
H    -5.788000000    -3.079000000     1.746000000
H    -7.202000000    -3.531000000     2.042000000
O    -5.872000000     4.449000000     2.960000000
H    -6.292000000     4.426000000     3.820000000
H    -5.077000000     3.927000000     3.068000000
O    -2.805000000    -1.904000000     6.447000000
H    -3.101000000    -2.540000000     5.795000000
H    -2.206000000    -2.398000000     7.008000000
O    -1.875000000    -0.039000000     4.582000000
H    -1.463000000    -0.237000000     5.422000000
H    -2.640000000    -0.613000000     4.548000000
O    -2.923000000     2.515000000     2.339000000
H    -3.332000000     1.664000000     2.492000000
H    -2.080000000     2.307000000     1.934000000
O    -0.336000000     1.179000000     2.376000000
H    -0.306000000     0.348000000     1.902000000
H    -0.913000000     1.009000000     3.121000000
O    -8.408000000    -3.628000000    -1.097000000
H    -8.070000000    -3.754000000    -1.984000000
H    -7.626000000    -3.568000000    -0.549000000
O    -3.417000000     3.801000000     5.262000000
H    -3.347000000     3.384000000     4.403000000
H    -4.201000000     3.413000000     5.652000000
O    -8.970000000     1.146000000    -0.138000000
H    -8.674000000     0.236000000    -0.127000000
H    -8.351000000     1.607000000     0.428000000
O    -7.594000000    -6.104000000     0.480000000
H    -8.185000000    -5.605000000    -0.085000000
H    -6.992000000    -5.450000000     0.835000000
O    -7.513000000    -0.966000000     0.574000000
H    -7.103000000    -1.823000000     0.456000000
H    -6.814000000    -0.413000000     0.922000000
