215
-1452.50339
C    -1.166000000    -5.231000000    -0.518000000
H    -0.130000000    -5.386000000    -0.229000000
C    -1.613000000    -4.520000000    -1.678000000
C    -2.950000000    -4.487000000    -2.061000000
H    -3.277000000    -4.153000000    -3.042000000
C    -0.568000000    -3.704000000    -2.388000000
O     0.678000000    -4.404000000    -2.606000000
H    -0.413000000    -2.852000000    -1.710000000
O    -1.025000000    -3.228000000    -3.668000000
C    -0.777000000    -1.949000000    -4.049000000
C    -1.795000000    -1.075000000    -3.969000000
H    -2.702000000    -1.411000000    -3.473000000
C    -1.537000000     0.287000000    -4.294000000
O    -2.563000000     1.201000000    -4.113000000
C    -0.294000000     0.719000000    -4.733000000
C    -0.094000000     2.229000000    -5.115000000
H     0.626000000     2.455000000    -5.904000000
C     0.401000000     3.018000000    -3.887000000
C     1.729000000     3.071000000    -3.650000000
H     2.295000000     2.462000000    -4.350000000
H    -1.049000000     2.580000000    -5.512000000
C     0.698000000    -0.200000000    -4.915000000
H     1.612000000     0.168000000    -5.375000000
C     0.442000000    -1.525000000    -4.580000000
C     1.604000000    -2.501000000    -4.729000000
H     2.445000000    -2.133000000    -5.321000000
H     1.080000000    -3.374000000    -5.122000000
C     2.255000000    -2.720000000    -3.338000000
C     3.318000000    -1.881000000    -3.041000000
H     3.487000000    -1.051000000    -3.723000000
C     1.819000000    -3.689000000    -2.362000000
C     2.420000000    -3.747000000    -1.100000000
H     2.039000000    -4.454000000    -0.367000000
C     3.534000000    -2.982000000    -0.842000000
O     3.936000000    -2.877000000     0.478000000
C     3.486000000    -1.699000000     1.247000000
C     2.987000000    -2.037000000     2.689000000
C     2.977000000    -1.039000000     3.666000000
H     3.228000000    -0.007000000     3.432000000
C     2.545000000    -3.348000000     3.012000000
H     2.577000000    -4.075000000     2.205000000
O     4.565000000    -0.812000000     1.283000000
H     2.662000000    -1.163000000     0.753000000
C     3.912000000    -2.019000000    -1.789000000
C     5.094000000    -1.053000000    -1.551000000
H     5.526000000    -0.838000000    -2.531000000
H     5.943000000    -1.411000000    -0.966000000
C     4.639000000     0.257000000    -0.909000000
C     4.394000000     1.384000000    -1.731000000
H     4.520000000     1.189000000    -2.793000000
C     4.408000000     0.368000000     0.480000000
C     3.978000000     1.568000000     1.054000000
H     3.976000000     1.689000000     2.134000000
C     3.723000000     2.676000000     0.252000000
O     3.254000000     3.811000000     0.779000000
C     1.783000000     3.829000000     0.751000000
C     1.141000000     4.193000000     2.042000000
C     1.848000000     3.919000000     3.191000000
H     2.811000000     3.438000000     3.041000000
C    -0.139000000     4.779000000     2.133000000
H    -0.661000000     5.085000000     1.230000000
O     1.433000000     4.727000000    -0.339000000
H     1.371000000     2.844000000     0.487000000
C     3.940000000     2.582000000    -1.157000000
C     3.641000000     3.707000000    -2.085000000
H     4.319000000     3.664000000    -2.940000000
H     3.914000000     4.612000000    -1.538000000
C     2.163000000     3.620000000    -2.453000000
C     1.189000000     4.156000000    -1.543000000
C    -0.166000000     4.045000000    -1.775000000
H    -0.893000000     4.467000000    -1.085000000
C    -0.515000000     3.478000000    -2.989000000
O    -1.830000000     3.299000000    -3.215000000
C    -2.420000000     1.993000000    -2.923000000
H    -1.716000000     1.419000000    -2.303000000
C    -3.685000000     1.938000000    -2.010000000
C    -4.408000000     0.748000000    -1.818000000
H    -4.166000000    -0.158000000    -2.368000000
C    -3.938000000     3.098000000    -1.262000000
H    -3.382000000     4.029000000    -1.345000000
C    -5.063000000     3.064000000    -0.429000000
O    -5.215000000     4.178000000     0.400000000
C    -5.801000000     1.887000000    -0.165000000
H    -6.563000000     1.910000000     0.609000000
C    -5.432000000     0.763000000    -0.853000000
O    -6.077000000    -0.366000000    -0.549000000
C    -6.323000000    -1.512000000    -1.302000000
C    -5.471000000    -2.679000000    -1.144000000
H    -4.649000000    -2.538000000    -0.447000000
C    -7.431000000    -1.599000000    -2.105000000
H    -8.148000000    -0.785000000    -2.170000000
C    -7.675000000    -2.787000000    -2.839000000
H    -8.524000000    -2.770000000    -3.518000000
C    -6.878000000    -3.923000000    -2.609000000
H    -7.145000000    -4.845000000    -3.118000000
C    -5.800000000    -3.869000000    -1.753000000
O    -5.171000000    -5.074000000    -1.521000000
C    -3.849000000    -5.114000000    -1.281000000
C    -3.471000000    -5.839000000    -0.170000000
H    -4.191000000    -6.389000000     0.431000000
C    -2.148000000    -5.866000000     0.291000000
O    -1.858000000    -6.583000000     1.426000000
C    -0.565000000    -6.602000000     1.960000000
C    -0.127000000    -5.610000000     2.761000000
H    -0.869000000    -4.862000000     3.028000000
C     0.303000000    -7.644000000     1.669000000
H     0.070000000    -8.378000000     0.902000000
C     1.504000000    -7.748000000     2.337000000
H     2.319000000    -8.408000000     2.051000000
C     1.904000000    -6.795000000     3.310000000
H     2.793000000    -6.812000000     3.935000000
C     1.086000000    -5.680000000     3.508000000
O     1.361000000    -4.833000000     4.529000000
C     1.982000000    -3.611000000     4.246000000
C     2.062000000    -2.647000000     5.243000000
H     1.689000000    -2.861000000     6.241000000
C     2.642000000    -1.387000000     4.951000000
O     2.817000000    -0.457000000     5.978000000
C     3.417000000     0.809000000     5.811000000
C     2.531000000     1.798000000     5.702000000
H     1.464000000     1.593000000     5.718000000
C     4.821000000     1.098000000     5.948000000
H     5.539000000     0.372000000     6.321000000
C     5.293000000     2.460000000     5.895000000
H     6.343000000     2.736000000     5.941000000
C     4.266000000     3.448000000     5.716000000
H     4.568000000     4.446000000     5.408000000
C     2.893000000     3.182000000     5.717000000
O     1.966000000     4.194000000     5.574000000
C     1.273000000     4.417000000     4.359000000
C     0.050000000     5.046000000     4.467000000
H    -0.328000000     5.351000000     5.439000000
C    -0.695000000     5.175000000     3.286000000
O    -1.900000000     5.826000000     3.302000000
C    -2.746000000     6.107000000     2.231000000
C    -2.509000000     7.197000000     1.352000000
H    -1.703000000     7.877000000     1.614000000
C    -3.186000000     7.231000000     0.134000000
H    -3.295000000     8.108000000    -0.499000000
C    -4.141000000     6.241000000    -0.225000000
H    -4.718000000     6.205000000    -1.146000000
C    -4.259000000     5.150000000     0.615000000
C    -3.642000000     5.107000000     1.841000000
H    -3.828000000     4.285000000     2.526000000
C    -0.745000000    -1.736000000     0.729000000
H    -0.358000000    -2.751000000     0.749000000
C    -0.026000000    -0.869000000    -0.083000000
H     0.820000000    -1.249000000    -0.651000000
C    -0.300000000     0.488000000    -0.117000000
H     0.391000000     1.134000000    -0.668000000
C    -1.449000000     0.968000000     0.558000000
H    -1.616000000     2.041000000     0.523000000
C    -2.204000000     0.130000000     1.374000000
H    -3.016000000     0.595000000     1.928000000
C    -1.818000000    -1.210000000     1.488000000
C    -2.622000000    -2.035000000     2.529000000
O    -3.833000000    -1.797000000     2.546000000
O    -2.105000000    -2.794000000     3.375000000
O    -7.552000000    -5.779000000     0.724000000
H    -6.986000000    -5.263000000     1.299000000
H    -7.005000000    -5.975000000    -0.037000000
O    -5.809000000    -3.843000000     1.936000000
H    -5.285000000    -3.087000000     1.671000000
H    -5.301000000    -4.252000000     2.636000000
O    -4.905000000    -2.152000000     5.126000000
H    -4.300000000    -1.907000000     4.426000000
H    -5.114000000    -3.070000000     4.951000000
O    -7.077000000    -0.498000000     5.090000000
H    -6.558000000    -1.284000000     5.264000000
H    -7.044000000    -0.396000000     4.139000000
O    -4.061000000    -1.618000000     8.285000000
H    -3.731000000    -2.495000000     8.089000000
H    -5.010000000    -1.690000000     8.183000000
O    -5.415000000     2.371000000     3.564000000
H    -4.466000000     2.457000000     3.470000000
H    -5.633000000     1.579000000     3.072000000
O    -5.738000000    -0.121000000     2.529000000
H    -5.075000000    -0.781000000     2.732000000
H    -6.210000000    -0.480000000     1.778000000
O    -8.021000000    -2.099000000     2.039000000
H    -7.947000000    -2.619000000     2.839000000
H    -7.570000000    -2.619000000     1.373000000
O    -1.436000000    -3.453000000     5.826000000
H    -1.726000000    -3.309000000     4.926000000
H    -0.515000000    -3.702000000     5.745000000
O    -1.289000000    -3.523000000     8.502000000
H    -1.464000000    -4.462000000     8.565000000
H    -1.388000000    -3.323000000     7.571000000
O    -6.024000000    -6.388000000     5.408000000
H    -6.390000000    -7.023000000     4.792000000
H    -5.576000000    -5.748000000     4.855000000
O    -2.479000000     2.508000000     4.086000000
H    -1.543000000     2.574000000     3.898000000
H    -2.582000000     1.646000000     4.490000000
O    -4.012000000    -4.718000000     3.811000000
H    -3.498000000    -3.939000000     3.597000000
H    -3.374000000    -5.335000000     4.170000000
O    -2.597000000    -6.825000000     4.919000000
H    -1.886000000    -7.101000000     5.497000000
H    -2.820000000    -7.612000000     4.421000000
O    -1.775000000    -0.105000000     5.250000000
H    -1.847000000    -0.942000000     4.790000000
H    -1.105000000    -0.256000000     5.917000000
O    -0.171000000    -0.842000000     7.371000000
H     0.184000000     0.037000000     7.504000000
H    -0.458000000    -1.119000000     8.241000000
O    -4.138000000     0.732000000     6.630000000
H    -4.038000000    -0.076000000     7.132000000
H    -3.691000000     0.556000000     5.801000000
O    -7.681000000    -3.775000000     5.168000000
H    -8.063000000    -4.501000000     4.675000000
H    -7.662000000    -4.084000000     6.074000000
O    -3.781000000    -4.295000000     7.280000000
H    -4.293000000    -4.892000000     6.734000000
H    -2.990000000    -4.122000000     6.769000000
