215
-1460.41401
C    -1.126000000    -5.113000000     0.551000000
H    -0.145000000    -5.038000000     1.014000000
C    -1.356000000    -4.641000000    -0.756000000
C    -2.616000000    -4.675000000    -1.289000000
H    -2.746000000    -4.259000000    -2.285000000
C    -0.164000000    -3.946000000    -1.468000000
O     1.060000000    -4.579000000    -1.136000000
H    -0.117000000    -2.880000000    -1.199000000
O    -0.425000000    -4.041000000    -2.895000000
C    -0.057000000    -2.905000000    -3.677000000
C    -1.117000000    -2.058000000    -4.112000000
H    -2.122000000    -2.327000000    -3.794000000
C    -0.838000000    -0.773000000    -4.631000000
O    -1.860000000     0.127000000    -4.653000000
C     0.481000000    -0.476000000    -4.884000000
C     0.818000000     0.902000000    -5.484000000
H     1.755000000     0.737000000    -6.019000000
C     0.954000000     1.901000000    -4.325000000
C     2.220000000     2.266000000    -3.816000000
H     3.072000000     1.813000000    -4.316000000
H     0.056000000     1.256000000    -6.181000000
C     1.553000000    -1.333000000    -4.487000000
H     2.558000000    -1.090000000    -4.823000000
C     1.312000000    -2.585000000    -3.855000000
C     2.467000000    -3.608000000    -3.508000000
H     3.274000000    -3.531000000    -4.239000000
H     2.208000000    -4.659000000    -3.650000000
C     2.841000000    -3.312000000    -2.087000000
C     3.966000000    -2.574000000    -1.913000000
H     4.465000000    -2.150000000    -2.781000000
C     2.260000000    -3.904000000    -0.987000000
C     2.722000000    -3.656000000     0.310000000
H     2.223000000    -4.051000000     1.191000000
C     3.864000000    -2.838000000     0.537000000
O     4.096000000    -2.407000000     1.848000000
C     3.636000000    -1.079000000     2.242000000
C     3.047000000    -1.069000000     3.708000000
C     3.351000000    -0.077000000     4.579000000
H     4.021000000     0.730000000     4.295000000
C     2.123000000    -2.060000000     3.958000000
H     1.781000000    -2.845000000     3.288000000
O     4.698000000    -0.142000000     2.135000000
H     2.792000000    -0.892000000     1.562000000
C     4.471000000    -2.267000000    -0.636000000
C     5.539000000    -1.157000000    -0.438000000
H     6.119000000    -1.138000000    -1.363000000
H     6.254000000    -1.467000000     0.326000000
C     4.998000000     0.290000000    -0.209000000
C     4.784000000     1.242000000    -1.277000000
H     5.110000000     0.898000000    -2.255000000
C     4.515000000     0.674000000     1.022000000
C     4.055000000     1.986000000     1.261000000
H     3.732000000     2.219000000     2.273000000
C     3.808000000     2.855000000     0.203000000
O     3.056000000     3.981000000     0.488000000
C     1.643000000     3.879000000     0.202000000
C     0.732000000     4.311000000     1.339000000
C     1.187000000     4.605000000     2.650000000
H     2.262000000     4.550000000     2.802000000
C    -0.632000000     4.587000000     1.113000000
H    -0.975000000     4.375000000     0.103000000
O     1.290000000     4.583000000    -0.979000000
H     1.416000000     2.818000000     0.023000000
C     4.178000000     2.558000000    -1.125000000
C     3.744000000     3.436000000    -2.273000000
H     4.387000000     3.319000000    -3.148000000
H     3.800000000     4.463000000    -1.907000000
C     2.353000000     3.177000000    -2.691000000
C     1.263000000     3.788000000    -2.113000000
C     0.060000000     3.511000000    -2.771000000
H    -0.790000000     3.965000000    -2.267000000
C    -0.164000000     2.603000000    -3.832000000
O    -1.502000000     2.339000000    -4.140000000
C    -1.964000000     1.058000000    -3.622000000
H    -1.383000000     0.706000000    -2.757000000
C    -3.393000000     1.129000000    -3.204000000
C    -4.261000000     0.065000000    -3.208000000
H    -3.985000000    -0.921000000    -3.572000000
C    -3.899000000     2.294000000    -2.573000000
H    -3.153000000     3.034000000    -2.296000000
C    -5.315000000     2.387000000    -2.156000000
O    -5.774000000     3.541000000    -1.575000000
C    -6.120000000     1.308000000    -2.382000000
H    -7.159000000     1.386000000    -2.072000000
C    -5.608000000     0.126000000    -2.827000000
O    -6.501000000    -0.963000000    -2.968000000
C    -6.023000000    -2.254000000    -3.097000000
C    -5.706000000    -2.969000000    -1.997000000
H    -5.698000000    -2.478000000    -1.027000000
C    -6.045000000    -2.830000000    -4.415000000
H    -6.193000000    -2.203000000    -5.291000000
C    -5.581000000    -4.113000000    -4.619000000
H    -5.512000000    -4.507000000    -5.629000000
C    -5.204000000    -4.853000000    -3.511000000
H    -4.813000000    -5.858000000    -3.645000000
C    -5.278000000    -4.311000000    -2.182000000
O    -4.963000000    -5.048000000    -1.054000000
C    -3.681000000    -5.035000000    -0.557000000
C    -3.587000000    -5.413000000     0.754000000
H    -4.421000000    -5.725000000     1.377000000
C    -2.283000000    -5.450000000     1.270000000
O    -2.219000000    -5.759000000     2.599000000
C    -1.128000000    -5.567000000     3.421000000
C    -0.884000000    -4.275000000     3.956000000
H    -1.492000000    -3.393000000     3.771000000
C    -0.369000000    -6.690000000     3.693000000
H    -0.648000000    -7.566000000     3.112000000
C     0.607000000    -6.521000000     4.639000000
H     1.190000000    -7.393000000     4.923000000
C     0.941000000    -5.309000000     5.193000000
H     1.684000000    -5.273000000     5.986000000
C     0.201000000    -4.127000000     4.857000000
O     0.490000000    -2.895000000     5.480000000
C     1.460000000    -1.975000000     5.145000000
C     1.690000000    -0.943000000     6.056000000
H     1.016000000    -0.880000000     6.908000000
C     2.665000000     0.001000000     5.776000000
O     2.799000000     1.136000000     6.612000000
C     2.897000000     2.497000000     6.170000000
C     1.805000000     3.231000000     5.802000000
H     0.816000000     2.792000000     5.901000000
C     4.182000000     3.179000000     6.216000000
H     5.066000000     2.692000000     6.619000000
C     4.233000000     4.532000000     5.916000000
H     5.193000000     5.024000000     6.050000000
C     3.080000000     5.197000000     5.490000000
H     2.996000000     6.238000000     5.187000000
C     1.868000000     4.550000000     5.459000000
O     0.683000000     5.163000000     4.969000000
C     0.305000000     5.058000000     3.612000000
C    -1.032000000     5.280000000     3.369000000
H    -1.686000000     5.681000000     4.138000000
C    -1.533000000     4.955000000     2.150000000
O    -2.850000000     4.981000000     2.033000000
C    -3.525000000     5.199000000     0.819000000
C    -3.403000000     6.457000000     0.224000000
H    -2.906000000     7.260000000     0.761000000
C    -4.165000000     6.784000000    -0.940000000
H    -4.170000000     7.796000000    -1.337000000
C    -4.916000000     5.782000000    -1.594000000
H    -5.547000000     5.961000000    -2.461000000
C    -4.946000000     4.485000000    -1.029000000
C    -4.296000000     4.209000000     0.180000000
H    -4.354000000     3.227000000     0.643000000
C    -2.705000000    -1.268000000     1.181000000
H    -3.167000000    -2.106000000     1.698000000
C    -1.306000000    -1.254000000     1.009000000
H    -0.689000000    -2.066000000     1.385000000
C    -0.716000000    -0.140000000     0.349000000
H     0.366000000    -0.148000000     0.195000000
C    -1.404000000     0.925000000    -0.101000000
H    -0.876000000     1.703000000    -0.645000000
C    -2.831000000     0.914000000     0.133000000
H    -3.538000000     1.612000000    -0.307000000
C    -3.479000000    -0.126000000     0.798000000
C    -4.976000000    -0.123000000     1.199000000
O    -5.700000000     0.808000000     0.958000000
O    -5.383000000    -1.052000000     1.932000000
O    -7.945000000    -0.736000000    -0.189000000
H    -7.676000000    -1.651000000    -0.102000000
H    -7.185000000    -0.234000000     0.104000000
O    -7.252000000     2.723000000     1.253000000
H    -6.513000000     2.135000000     1.093000000
H    -7.982000000     2.323000000     0.779000000
O    -6.100000000    -0.016000000     6.310000000
H    -6.050000000    -0.751000000     6.921000000
H    -6.492000000    -0.388000000     5.520000000
O    -6.873000000     2.497000000     3.993000000
H    -7.034000000     2.693000000     3.070000000
H    -6.862000000     1.541000000     4.037000000
O    -6.773000000    -5.503000000     2.404000000
H    -6.438000000    -6.214000000     1.857000000
H    -6.220000000    -5.521000000     3.184000000
O    -9.382000000     1.889000000     0.168000000
H   -10.042000000     1.935000000    -0.524000000
H    -8.963000000     1.038000000     0.043000000
O   -10.355000000    -1.913000000     0.540000000
H    -9.456000000    -1.597000000     0.640000000
H   -10.464000000    -2.551000000     1.246000000
O    -4.203000000    -3.553000000     6.581000000
H    -3.264000000    -3.655000000     6.738000000
H    -4.262000000    -3.240000000     5.679000000
O    -4.454000000     2.168000000     5.340000000
H    -4.548000000     1.366000000     5.854000000
H    -5.340000000     2.359000000     5.032000000
O    -7.084000000    -2.995000000     0.926000000
H    -6.559000000    -2.384000000     1.443000000
H    -7.021000000    -3.825000000     1.398000000
O    -7.463000000     5.375000000     2.441000000
H    -6.993000000     4.561000000     2.258000000
H    -8.039000000     5.160000000     3.175000000
O    -7.410000000    -0.493000000     3.716000000
H    -6.742000000    -0.410000000     3.035000000
H    -7.434000000    -1.428000000     3.915000000
O    -4.449000000    -2.355000000     4.087000000
H    -4.736000000    -2.039000000     3.230000000
H    -3.740000000    -1.763000000     4.336000000
O    -1.720000000     1.721000000     3.193000000
H    -1.743000000     1.163000000     2.415000000
H    -2.633000000     1.971000000     3.334000000
O    -9.668000000    -1.309000000    -2.240000000
H    -9.157000000    -0.871000000    -1.559000000
H    -9.939000000    -2.136000000    -1.841000000
O    -2.170000000    -0.944000000     4.521000000
H    -1.987000000    -0.036000000     4.281000000
H    -2.394000000    -0.907000000     5.451000000
O    -1.829000000     2.435000000     5.920000000
H    -2.766000000     2.481000000     5.732000000
H    -1.434000000     2.140000000     5.099000000
O    -7.158000000    -2.893000000     4.826000000
H    -6.203000000    -2.958000000     4.846000000
H    -7.459000000    -3.801000000     4.793000000
O   -10.073000000    -0.302000000     4.599000000
H    -9.138000000    -0.432000000     4.444000000
H   -10.472000000    -1.145000000     4.383000000
