215
-1454.27917
C    -0.885000000    -4.313000000     0.908000000
H     0.165000000    -4.337000000     1.187000000
C    -1.178000000    -4.071000000    -0.422000000
C    -2.499000000    -4.184000000    -0.797000000
H    -2.826000000    -4.156000000    -1.833000000
C    -0.116000000    -3.624000000    -1.402000000
O     1.183000000    -4.254000000    -1.222000000
H     0.024000000    -2.570000000    -1.119000000
O    -0.546000000    -3.787000000    -2.770000000
C    -0.348000000    -2.720000000    -3.572000000
C    -1.396000000    -1.908000000    -3.822000000
H    -2.405000000    -2.179000000    -3.520000000
C    -1.261000000    -0.714000000    -4.522000000
O    -2.316000000     0.079000000    -4.746000000
C     0.015000000    -0.348000000    -4.918000000
C     0.249000000     1.054000000    -5.536000000
H     1.095000000     0.991000000    -6.224000000
C     0.367000000     2.044000000    -4.372000000
C     1.688000000     2.371000000    -3.993000000
H     2.564000000     1.897000000    -4.427000000
H    -0.650000000     1.389000000    -6.058000000
C     1.090000000    -1.196000000    -4.676000000
H     2.073000000    -1.073000000    -5.123000000
C     0.918000000    -2.378000000    -4.009000000
C     2.160000000    -3.235000000    -3.745000000
H     2.872000000    -3.017000000    -4.545000000
H     1.998000000    -4.310000000    -3.838000000
C     2.777000000    -2.845000000    -2.377000000
C     3.813000000    -1.881000000    -2.231000000
H     4.195000000    -1.500000000    -3.174000000
C     2.316000000    -3.424000000    -1.173000000
C     2.911000000    -3.144000000     0.033000000
H     2.627000000    -3.695000000     0.926000000
C     3.923000000    -2.227000000     0.126000000
O     4.512000000    -2.037000000     1.385000000
C     4.119000000    -0.820000000     1.976000000
C     3.792000000    -1.014000000     3.489000000
C     3.807000000    -0.005000000     4.410000000
H     4.133000000     0.967000000     4.047000000
C     3.291000000    -2.259000000     3.892000000
H     3.217000000    -3.088000000     3.192000000
O     5.070000000     0.182000000     1.754000000
H     3.161000000    -0.517000000     1.528000000
C     4.371000000    -1.624000000    -1.014000000
C     5.513000000    -0.678000000    -0.965000000
H     6.178000000    -0.631000000    -1.829000000
H     6.194000000    -1.024000000    -0.185000000
C     5.018000000     0.708000000    -0.526000000
C     4.663000000     1.604000000    -1.578000000
H     4.730000000     1.170000000    -2.572000000
C     4.924000000     1.137000000     0.783000000
C     4.261000000     2.420000000     1.068000000
H     4.003000000     2.736000000     2.075000000
C     3.719000000     3.165000000     0.026000000
O     2.744000000     4.129000000     0.334000000
C     1.377000000     3.768000000     0.071000000
C     0.436000000     4.004000000     1.234000000
C     0.903000000     3.932000000     2.535000000
H     1.970000000     3.747000000     2.638000000
C    -0.884000000     4.217000000     1.022000000
H    -1.362000000     4.021000000     0.065000000
O     1.020000000     4.535000000    -1.142000000
H     1.389000000     2.704000000    -0.210000000
C     3.929000000     2.699000000    -1.315000000
C     3.347000000     3.510000000    -2.503000000
H     4.071000000     3.398000000    -3.313000000
H     3.378000000     4.569000000    -2.240000000
C     1.896000000     3.182000000    -2.900000000
C     0.833000000     3.814000000    -2.271000000
C    -0.435000000     3.546000000    -2.655000000
H    -1.296000000     3.926000000    -2.110000000
C    -0.722000000     2.627000000    -3.710000000
O    -2.013000000     2.279000000    -4.018000000
C    -2.539000000     0.946000000    -3.667000000
H    -2.083000000     0.561000000    -2.743000000
C    -4.031000000     1.034000000    -3.288000000
C    -4.884000000    -0.111000000    -3.338000000
H    -4.501000000    -1.059000000    -3.705000000
C    -4.495000000     2.197000000    -2.658000000
H    -3.881000000     3.073000000    -2.463000000
C    -5.827000000     2.160000000    -2.180000000
O    -6.173000000     3.223000000    -1.350000000
C    -6.682000000     1.053000000    -2.271000000
H    -7.688000000     1.156000000    -1.873000000
C    -6.158000000    -0.061000000    -2.846000000
O    -6.896000000    -1.224000000    -2.988000000
C    -6.453000000    -2.519000000    -2.758000000
C    -5.768000000    -2.895000000    -1.593000000
H    -5.586000000    -2.141000000    -0.831000000
C    -6.564000000    -3.463000000    -3.782000000
H    -7.151000000    -3.281000000    -4.678000000
C    -5.953000000    -4.779000000    -3.657000000
H    -5.960000000    -5.494000000    -4.475000000
C    -5.323000000    -5.111000000    -2.428000000
H    -4.935000000    -6.119000000    -2.310000000
C    -5.326000000    -4.157000000    -1.406000000
O    -4.775000000    -4.482000000    -0.180000000
C    -3.465000000    -4.368000000     0.183000000
C    -3.154000000    -4.601000000     1.519000000
H    -3.897000000    -4.914000000     2.248000000
C    -1.814000000    -4.604000000     1.891000000
O    -1.454000000    -4.916000000     3.209000000
C    -0.192000000    -5.224000000     3.642000000
C     0.498000000    -4.277000000     4.406000000
H    -0.027000000    -3.435000000     4.850000000
C     0.510000000    -6.387000000     3.264000000
H     0.098000000    -7.103000000     2.558000000
C     1.866000000    -6.619000000     3.731000000
H     2.422000000    -7.535000000     3.542000000
C     2.517000000    -5.661000000     4.493000000
H     3.540000000    -5.833000000     4.817000000
C     1.819000000    -4.517000000     4.862000000
O     2.368000000    -3.660000000     5.715000000
C     2.875000000    -2.445000000     5.239000000
C     2.932000000    -1.427000000     6.169000000
H     2.675000000    -1.604000000     7.210000000
C     3.281000000    -0.158000000     5.726000000
O     3.082000000     0.888000000     6.537000000
C     2.960000000     2.204000000     6.147000000
C     1.814000000     2.681000000     5.571000000
H     0.867000000     2.150000000     5.520000000
C     4.026000000     3.043000000     6.494000000
H     4.972000000     2.606000000     6.804000000
C     3.953000000     4.407000000     6.115000000
H     4.815000000     5.062000000     6.208000000
C     2.811000000     4.933000000     5.542000000
H     2.746000000     5.999000000     5.339000000
C     1.746000000     4.040000000     5.345000000
O     0.589000000     4.557000000     4.883000000
C     0.084000000     4.307000000     3.617000000
C    -1.253000000     4.620000000     3.415000000
H    -1.870000000     4.894000000     4.267000000
C    -1.730000000     4.407000000     2.121000000
O    -3.077000000     4.641000000     2.007000000
C    -3.768000000     4.921000000     0.835000000
C    -3.564000000     6.063000000     0.077000000
H    -2.854000000     6.797000000     0.449000000
C    -4.292000000     6.325000000    -1.134000000
H    -4.107000000     7.264000000    -1.649000000
C    -5.177000000     5.391000000    -1.578000000
H    -5.714000000     5.519000000    -2.515000000
C    -5.304000000     4.190000000    -0.891000000
C    -4.656000000     4.007000000     0.350000000
H    -4.670000000     3.067000000     0.896000000
C    -1.076000000    -1.124000000     1.953000000
H    -1.202000000    -1.815000000     2.783000000
C     0.098000000    -1.175000000     1.155000000
H     0.816000000    -1.917000000     1.496000000
C     0.357000000    -0.272000000     0.161000000
H     1.272000000    -0.487000000    -0.461000000
C    -0.648000000     0.708000000    -0.078000000
H    -0.505000000     1.334000000    -0.955000000
C    -1.830000000     0.838000000     0.656000000
H    -2.525000000     1.637000000     0.412000000
C    -2.126000000    -0.128000000     1.633000000
C    -3.384000000     0.138000000     2.447000000
O    -4.043000000     1.102000000     2.295000000
O    -3.672000000    -0.664000000     3.296000000
O    -7.640000000    -1.910000000     1.553000000
H    -6.706000000    -2.095000000     1.646000000
H    -8.075000000    -2.670000000     1.940000000
O    -6.834000000     0.657000000     3.802000000
H    -6.059000000     0.910000000     3.301000000
H    -6.829000000    -0.300000000     3.785000000
O    -4.117000000     2.566000000     4.414000000
H    -3.740000000     2.119000000     3.656000000
H    -4.777000000     1.958000000     4.746000000
O    -6.701000000    -0.656000000     7.273000000
H    -6.088000000    -1.390000000     7.236000000
H    -6.310000000     0.011000000     6.709000000
O    -5.076000000    -2.863000000     6.260000000
H    -5.416000000    -3.671000000     6.644000000
H    -4.183000000    -3.082000000     5.992000000
O    -5.138000000     5.022000000     4.305000000
H    -4.412000000     5.643000000     4.248000000
H    -4.719000000     4.162000000     4.308000000
O    -7.353000000     3.231000000     4.455000000
H    -7.278000000     2.284000000     4.344000000
H    -6.460000000     3.557000000     4.347000000
O    -7.648000000    -4.397000000     5.076000000
H    -7.750000000    -4.939000000     4.293000000
H    -7.217000000    -3.602000000     4.763000000
O    -9.117000000     0.767000000     0.865000000
H    -9.256000000     0.856000000    -0.078000000
H    -8.493000000     0.045000000     0.947000000
O    -2.517000000    -5.059000000     6.074000000
H    -2.382000000    -4.233000000     5.609000000
H    -2.615000000    -5.711000000     5.381000000
O    -1.793000000     2.331000000     6.513000000
H    -2.696000000     2.448000000     6.218000000
H    -1.488000000     1.553000000     6.047000000
O    -5.828000000    -2.221000000     3.779000000
H    -5.149000000    -1.579000000     3.570000000
H    -5.726000000    -2.380000000     4.717000000
O    -8.360000000     3.441000000     0.365000000
H    -8.601000000     2.713000000     0.938000000
H    -7.418000000     3.339000000     0.231000000
O    -4.400000000     0.187000000     5.754000000
H    -4.191000000    -0.052000000     4.851000000
H    -4.042000000    -0.529000000     6.280000000
O    -2.743000000    -2.452000000     4.941000000
H    -3.232000000    -2.068000000     4.213000000
H    -2.151000000    -1.756000000     5.225000000
O     1.283000000     0.802000000     2.788000000
H     0.643000000     0.361000000     2.229000000
H     1.103000000     1.734000000     2.669000000
O    -0.922000000    -0.379000000     5.342000000
H    -0.077000000    -0.247000000     4.912000000
H    -0.715000000    -0.400000000     6.276000000
O    -0.522000000    -1.002000000     8.026000000
H    -1.063000000    -1.769000000     7.840000000
H    -0.403000000    -1.018000000     8.976000000
O    -2.853000000     4.872000000     7.105000000
H    -2.533000000     4.038000000     6.762000000
H    -2.150000000     5.181000000     7.676000000
