215
-1455.66623
C    -1.019000000    -0.538000000    -4.938000000
H    -1.493000000    -1.463000000    -4.621000000
C     0.320000000    -0.272000000    -4.559000000
C     0.904000000     0.991000000    -4.773000000
H     1.880000000     1.324000000    -4.430000000
C     1.105000000    -1.364000000    -3.755000000
O     0.636000000    -2.714000000    -4.074000000
H     0.938000000    -1.114000000    -2.697000000
O     2.527000000    -1.170000000    -3.929000000
C     3.382000000    -1.287000000    -2.876000000
C     3.873000000    -0.108000000    -2.353000000
H     3.686000000     0.797000000    -2.926000000
C     4.435000000    -0.054000000    -1.140000000
O     4.740000000     1.200000000    -0.656000000
C     4.609000000    -1.257000000    -0.412000000
C     5.333000000    -1.260000000     0.934000000
H     5.688000000    -2.273000000     1.138000000
C     4.363000000    -0.907000000     2.094000000
C     3.758000000    -1.963000000     2.791000000
H     3.971000000    -2.990000000     2.505000000
H     6.245000000    -0.665000000     0.854000000
C     4.155000000    -2.480000000    -0.933000000
H     4.118000000    -3.324000000    -0.249000000
C     3.452000000    -2.518000000    -2.151000000
C     2.849000000    -3.768000000    -2.669000000
H     3.580000000    -4.580000000    -2.670000000
H     2.682000000    -3.628000000    -3.739000000
C     1.481000000    -3.963000000    -2.131000000
C     1.171000000    -4.637000000    -0.922000000
H     1.948000000    -5.032000000    -0.273000000
C     0.390000000    -3.488000000    -2.929000000
C    -0.949000000    -3.657000000    -2.501000000
H    -1.771000000    -3.178000000    -3.028000000
C    -1.202000000    -4.303000000    -1.343000000
O    -2.490000000    -4.371000000    -0.834000000
C    -2.882000000    -3.429000000     0.155000000
C    -4.259000000    -2.809000000    -0.144000000
C    -4.930000000    -1.953000000     0.733000000
H    -4.508000000    -1.851000000     1.730000000
C    -4.749000000    -2.958000000    -1.435000000
H    -4.281000000    -3.625000000    -2.154000000
O    -2.838000000    -4.069000000     1.448000000
H    -2.191000000    -2.573000000     0.143000000
C    -0.148000000    -4.821000000    -0.584000000
C    -0.328000000    -5.569000000     0.789000000
H     0.500000000    -6.260000000     0.964000000
H    -1.221000000    -6.196000000     0.825000000
C    -0.495000000    -4.536000000     1.903000000
C     0.673000000    -4.126000000     2.586000000
H     1.511000000    -4.812000000     2.493000000
C    -1.642000000    -3.790000000     2.159000000
C    -1.702000000    -2.833000000     3.153000000
H    -2.614000000    -2.300000000     3.414000000
C    -0.550000000    -2.401000000     3.787000000
O    -0.658000000    -1.356000000     4.572000000
C    -0.075000000    -0.181000000     4.131000000
C    -0.892000000     1.064000000     4.430000000
C    -2.319000000     0.991000000     4.478000000
H    -2.692000000    -0.023000000     4.358000000
C    -0.296000000     2.321000000     4.403000000
H     0.790000000     2.360000000     4.382000000
O     1.240000000    -0.064000000     4.803000000
H     0.138000000    -0.216000000     3.052000000
C     0.639000000    -3.087000000     3.533000000
C     1.921000000    -2.859000000     4.328000000
H     2.601000000    -3.713000000     4.318000000
H     1.588000000    -2.682000000     5.352000000
C     2.660000000    -1.696000000     3.698000000
C     2.299000000    -0.358000000     3.936000000
C     3.007000000     0.656000000     3.327000000
H     2.724000000     1.678000000     3.566000000
C     4.000000000     0.382000000     2.413000000
O     4.488000000     1.487000000     1.636000000
C     3.864000000     1.714000000     0.370000000
H     2.919000000     1.153000000     0.342000000
C     3.657000000     3.216000000     0.202000000
C     3.505000000     3.747000000    -1.070000000
H     3.507000000     3.052000000    -1.906000000
C     3.582000000     4.086000000     1.263000000
H     3.533000000     3.741000000     2.292000000
C     3.407000000     5.437000000     1.048000000
O     3.381000000     6.309000000     2.128000000
C     3.373000000     5.939000000    -0.208000000
H     3.248000000     7.014000000    -0.306000000
C     3.294000000     5.100000000    -1.292000000
O     3.298000000     5.627000000    -2.517000000
C     3.181000000     4.957000000    -3.697000000
C     1.931000000     4.432000000    -4.051000000
H     1.153000000     4.700000000    -3.340000000
C     4.245000000     4.813000000    -4.571000000
H     5.245000000     5.165000000    -4.331000000
C     3.990000000     4.062000000    -5.746000000
H     4.828000000     3.913000000    -6.423000000
C     2.780000000     3.497000000    -6.047000000
H     2.634000000     3.010000000    -7.008000000
C     1.679000000     3.728000000    -5.242000000
O     0.485000000     3.212000000    -5.616000000
C     0.130000000     1.926000000    -5.448000000
C    -1.159000000     1.725000000    -5.815000000
H    -1.672000000     2.553000000    -6.298000000
C    -1.786000000     0.530000000    -5.509000000
O    -3.105000000     0.355000000    -5.768000000
C    -3.820000000    -0.808000000    -5.555000000
C    -4.686000000    -1.008000000    -4.515000000
H    -4.982000000    -0.079000000    -4.035000000
C    -3.553000000    -1.888000000    -6.385000000
H    -2.851000000    -1.800000000    -7.210000000
C    -4.205000000    -3.142000000    -6.134000000
H    -4.070000000    -3.927000000    -6.874000000
C    -5.115000000    -3.232000000    -5.057000000
H    -5.650000000    -4.166000000    -4.901000000
C    -5.460000000    -2.163000000    -4.278000000
O    -6.315000000    -2.287000000    -3.217000000
C    -5.887000000    -2.264000000    -1.919000000
C    -6.454000000    -1.403000000    -1.037000000
H    -7.373000000    -0.874000000    -1.274000000
C    -6.038000000    -1.210000000     0.312000000
O    -6.622000000    -0.352000000     1.156000000
C    -6.229000000    -0.301000000     2.466000000
C    -5.603000000     0.824000000     3.018000000
H    -5.310000000     1.673000000     2.407000000
C    -6.442000000    -1.432000000     3.310000000
H    -6.941000000    -2.285000000     2.857000000
C    -5.967000000    -1.430000000     4.625000000
H    -6.214000000    -2.283000000     5.252000000
C    -5.355000000    -0.245000000     5.168000000
H    -5.023000000    -0.204000000     6.202000000
C    -5.198000000     0.825000000     4.296000000
O    -4.496000000     1.986000000     4.736000000
C    -3.142000000     2.111000000     4.562000000
C    -2.495000000     3.378000000     4.509000000
H    -3.128000000     4.237000000     4.719000000
C    -1.083000000     3.463000000     4.496000000
O    -0.555000000     4.753000000     4.274000000
C     0.822000000     4.974000000     4.349000000
C     1.562000000     4.818000000     5.505000000
H     1.018000000     4.421000000     6.358000000
C     2.961000000     5.031000000     5.545000000
H     3.501000000     5.090000000     6.487000000
C     3.580000000     5.565000000     4.420000000
H     4.636000000     5.810000000     4.501000000
C     2.835000000     5.885000000     3.320000000
C     1.485000000     5.565000000     3.259000000
H     0.885000000     5.907000000     2.420000000
C    -1.942000000     0.324000000    -0.779000000
H    -2.908000000    -0.072000000    -0.476000000
C    -0.764000000    -0.289000000    -0.263000000
H    -0.773000000    -1.136000000     0.418000000
C     0.491000000     0.141000000    -0.628000000
H     1.409000000    -0.245000000    -0.218000000
C     0.550000000     1.232000000    -1.508000000
H     1.554000000     1.610000000    -1.681000000
C    -0.568000000     1.774000000    -2.109000000
H    -0.453000000     2.666000000    -2.720000000
C    -1.826000000     1.334000000    -1.746000000
C    -3.032000000     2.058000000    -2.229000000
O    -2.915000000     2.859000000    -3.127000000
O    -4.141000000     1.884000000    -1.804000000
O    -8.843000000     1.871000000    -0.393000000
H    -8.199000000     2.451000000    -0.799000000
H    -9.661000000     2.062000000    -0.853000000
O    -0.967000000     6.147000000    -6.616000000
H    -1.748000000     5.698000000    -6.294000000
H    -1.237000000     6.530000000    -7.451000000
O    -7.991000000     1.913000000    -4.376000000
H    -8.773000000     1.376000000    -4.510000000
H    -7.758000000     2.220000000    -5.253000000
O    -0.294000000    -0.414000000    -8.264000000
H    -0.674000000     0.162000000    -8.928000000
H    -0.370000000     0.080000000    -7.447000000
O    -8.514000000     2.874000000     2.142000000
H    -8.558000000     2.410000000     1.306000000
H    -9.272000000     2.556000000     2.633000000
O    -9.133000000     3.666000000    -2.600000000
H   -10.019000000     3.303000000    -2.604000000
H    -8.621000000     3.051000000    -3.126000000
O    -5.386000000     7.319000000    -4.198000000
H    -5.811000000     7.474000000    -5.041000000
H    -5.896000000     6.615000000    -3.799000000
O    -6.990000000     5.121000000    -3.332000000
H    -7.056000000     4.421000000    -3.982000000
H    -7.682000000     4.926000000    -2.700000000
O    -2.695000000     6.915000000    -2.935000000
H    -3.388000000     7.545000000    -2.735000000
H    -2.029000000     7.429000000    -3.393000000
O    -4.776000000     3.765000000     0.885000000
H    -4.218000000     4.204000000     0.244000000
H    -5.319000000     3.173000000     0.365000000
O    -1.652000000     5.823000000     1.371000000
H    -1.917000000     5.705000000     0.459000000
H    -1.298000000     4.972000000     1.630000000
O    -6.098000000     3.775000000    -8.707000000
H    -6.102000000     4.707000000    -8.922000000
H    -5.674000000     3.729000000    -7.850000000
O    -0.441000000     2.877000000     0.895000000
H    -0.763000000     3.220000000     0.061000000
H     0.085000000     2.115000000     0.654000000
O    -2.710000000     5.127000000    -5.013000000
H    -2.539000000     4.291000000    -4.579000000
H    -2.789000000     5.757000000    -4.296000000
O    -5.330000000     2.734000000    -4.128000000
H    -5.897000000     2.341000000    -3.465000000
H    -4.451000000     2.687000000    -3.750000000
O    -6.428000000     2.994000000    -1.323000000
H    -6.220000000     3.725000000    -1.905000000
H    -5.623000000     2.477000000    -1.291000000
O    -5.218000000     4.326000000    -6.197000000
H    -4.336000000     4.693000000    -6.244000000
H    -5.197000000     3.750000000    -5.433000000
O    -6.322000000     4.605000000     3.183000000
H    -5.801000000     4.757000000     2.395000000
H    -6.960000000     3.940000000     2.924000000
O    -2.737000000     5.048000000    -1.027000000
H    -2.790000000     5.758000000    -1.666000000
H    -2.891000000     4.254000000    -1.538000000
