215
-1447.91095
C     0.125000000    -5.535000000    -0.195000000
H     1.199000000    -5.424000000    -0.071000000
C    -0.418000000    -4.758000000    -1.234000000
C    -1.816000000    -4.799000000    -1.383000000
H    -2.283000000    -4.216000000    -2.174000000
C     0.485000000    -3.803000000    -2.070000000
O     1.760000000    -4.372000000    -2.208000000
H     0.589000000    -2.863000000    -1.509000000
O    -0.243000000    -3.513000000    -3.329000000
C    -0.197000000    -2.349000000    -4.020000000
C    -1.387000000    -1.601000000    -3.983000000
H    -2.271000000    -2.076000000    -3.565000000
C    -1.362000000    -0.273000000    -4.351000000
O    -2.462000000     0.507000000    -4.211000000
C    -0.132000000     0.328000000    -4.817000000
C    -0.183000000     1.732000000    -5.394000000
H     0.528000000     1.734000000    -6.222000000
C     0.033000000     2.677000000    -4.219000000
C     1.394000000     3.035000000    -3.965000000
H     2.144000000     2.549000000    -4.584000000
H    -1.181000000     1.953000000    -5.778000000
C     1.014000000    -0.430000000    -4.762000000
H     1.969000000    -0.019000000    -5.078000000
C     0.965000000    -1.802000000    -4.473000000
C     2.276000000    -2.573000000    -4.551000000
H     2.841000000    -2.271000000    -5.435000000
H     2.095000000    -3.632000000    -4.745000000
C     2.999000000    -2.472000000    -3.161000000
C     4.049000000    -1.610000000    -2.928000000
H     4.222000000    -0.863000000    -3.698000000
C     2.755000000    -3.415000000    -2.166000000
C     3.361000000    -3.309000000    -0.874000000
H     3.224000000    -4.131000000    -0.177000000
C     4.222000000    -2.271000000    -0.605000000
O     4.491000000    -1.953000000     0.698000000
C     3.787000000    -0.915000000     1.394000000
C     3.193000000    -1.330000000     2.668000000
C     2.911000000    -0.327000000     3.619000000
H     3.137000000     0.711000000     3.387000000
C     2.918000000    -2.714000000     2.982000000
H     3.221000000    -3.463000000     2.255000000
O     4.583000000     0.313000000     1.422000000
H     2.887000000    -0.687000000     0.805000000
C     4.542000000    -1.357000000    -1.648000000
C     5.468000000    -0.189000000    -1.435000000
H     6.028000000     0.084000000    -2.332000000
H     6.293000000    -0.451000000    -0.770000000
C     4.726000000     1.038000000    -0.944000000
C     4.325000000     2.026000000    -1.920000000
H     4.573000000     1.810000000    -2.956000000
C     4.399000000     1.216000000     0.401000000
C     3.746000000     2.422000000     0.743000000
H     3.500000000     2.546000000     1.794000000
C     3.374000000     3.396000000    -0.164000000
O     2.667000000     4.435000000     0.309000000
C     1.182000000     4.329000000     0.075000000
C     0.288000000     4.778000000     1.289000000
C     0.729000000     4.386000000     2.551000000
H     1.624000000     3.779000000     2.661000000
C    -0.969000000     5.401000000     1.157000000
H    -1.430000000     5.543000000     0.183000000
O     0.958000000     5.185000000    -1.104000000
H     0.937000000     3.289000000    -0.190000000
C     3.688000000     3.196000000    -1.533000000
C     3.195000000     4.131000000    -2.630000000
H     3.703000000     4.024000000    -3.590000000
H     3.401000000     5.169000000    -2.359000000
C     1.749000000     3.888000000    -2.942000000
C     0.691000000     4.452000000    -2.189000000
C    -0.640000000     4.247000000    -2.522000000
H    -1.411000000     4.629000000    -1.858000000
C    -0.979000000     3.218000000    -3.485000000
O    -2.309000000     2.804000000    -3.568000000
C    -2.545000000     1.466000000    -3.089000000
H    -1.697000000     1.166000000    -2.455000000
C    -3.826000000     1.382000000    -2.212000000
C    -4.388000000     0.133000000    -1.854000000
H    -3.788000000    -0.722000000    -2.152000000
C    -4.400000000     2.557000000    -1.627000000
H    -4.011000000     3.528000000    -1.923000000
C    -5.447000000     2.415000000    -0.701000000
O    -6.105000000     3.479000000    -0.221000000
C    -5.991000000     1.181000000    -0.445000000
H    -6.870000000     1.141000000     0.193000000
C    -5.436000000     0.013000000    -0.912000000
O    -5.964000000    -1.238000000    -0.489000000
C    -5.933000000    -2.454000000    -1.057000000
C    -5.059000000    -3.411000000    -0.494000000
H    -4.557000000    -3.282000000     0.462000000
C    -6.485000000    -2.627000000    -2.301000000
H    -6.983000000    -1.758000000    -2.725000000
C    -6.383000000    -3.868000000    -2.963000000
H    -6.813000000    -4.013000000    -3.950000000
C    -5.493000000    -4.830000000    -2.395000000
H    -5.263000000    -5.753000000    -2.921000000
C    -4.865000000    -4.643000000    -1.141000000
O    -3.972000000    -5.633000000    -0.641000000
C    -2.596000000    -5.615000000    -0.532000000
C    -1.994000000    -6.466000000     0.382000000
H    -2.615000000    -7.272000000     0.764000000
C    -0.625000000    -6.482000000     0.529000000
O    -0.150000000    -7.289000000     1.519000000
C     0.990000000    -6.934000000     2.199000000
C     0.907000000    -5.840000000     3.068000000
H    -0.079000000    -5.399000000     3.187000000
C     2.158000000    -7.629000000     2.076000000
H     2.153000000    -8.409000000     1.319000000
C     3.313000000    -7.107000000     2.713000000
H     4.343000000    -7.362000000     2.477000000
C     3.180000000    -6.057000000     3.600000000
H     4.056000000    -5.760000000     4.172000000
C     1.958000000    -5.385000000     3.749000000
O     1.899000000    -4.326000000     4.509000000
C     2.257000000    -3.025000000     4.181000000
C     2.064000000    -2.002000000     5.133000000
H     1.574000000    -2.253000000     6.070000000
C     2.438000000    -0.726000000     4.839000000
O     2.393000000     0.240000000     5.782000000
C     2.499000000     1.591000000     5.636000000
C     1.383000000     2.334000000     5.401000000
H     0.390000000     1.919000000     5.250000000
C     3.750000000     2.176000000     5.862000000
H     4.582000000     1.528000000     6.126000000
C     3.865000000     3.534000000     5.586000000
H     4.852000000     3.965000000     5.737000000
C     2.692000000     4.287000000     5.372000000
H     2.794000000     5.366000000     5.282000000
C     1.500000000     3.686000000     5.279000000
O     0.336000000     4.391000000     4.958000000
C    -0.050000000     4.684000000     3.689000000
C    -1.253000000     5.326000000     3.563000000
H    -1.816000000     5.626000000     4.443000000
C    -1.750000000     5.650000000     2.287000000
O    -2.897000000     6.278000000     2.172000000
C    -4.125000000     5.643000000     2.031000000
C    -5.087000000     6.005000000     2.932000000
H    -4.926000000     6.652000000     3.791000000
C    -6.353000000     5.428000000     2.908000000
H    -7.109000000     5.612000000     3.667000000
C    -6.646000000     4.516000000     1.894000000
H    -7.666000000     4.144000000     1.840000000
C    -5.704000000     4.170000000     0.960000000
C    -4.439000000     4.765000000     0.963000000
H    -3.606000000     4.445000000     0.342000000
C    -1.505000000    -0.755000000     1.750000000
H    -1.480000000    -1.690000000     2.304000000
C    -0.448000000    -0.523000000     0.847000000
H     0.281000000    -1.316000000     0.700000000
C    -0.467000000     0.679000000     0.173000000
H     0.381000000     0.876000000    -0.530000000
C    -1.404000000     1.706000000     0.417000000
H    -1.259000000     2.692000000    -0.017000000
C    -2.459000000     1.406000000     1.315000000
H    -3.148000000     2.231000000     1.477000000
C    -2.540000000     0.193000000     2.003000000
C    -3.636000000    -0.017000000     3.060000000
O    -4.475000000     0.836000000     3.220000000
O    -3.576000000    -0.920000000     3.890000000
O    -6.523000000    -0.436000000     8.861000000
H    -7.045000000    -0.135000000     8.117000000
H    -6.725000000    -1.369000000     8.934000000
O    -6.189000000    -5.714000000     3.691000000
H    -6.020000000    -6.444000000     4.287000000
H    -5.543000000    -5.051000000     3.935000000
O    -7.902000000     0.730000000     6.626000000
H    -8.445000000     0.896000000     5.855000000
H    -7.004000000     0.752000000     6.296000000
O    -4.576000000     2.138000000     7.652000000
H    -4.316000000     2.757000000     6.969000000
H    -4.555000000     1.283000000     7.221000000
O    -6.748000000     0.099000000     3.962000000
H    -6.845000000    -0.695000000     3.437000000
H    -5.888000000     0.442000000     3.721000000
O    -4.717000000    -0.161000000     6.344000000
H    -4.627000000    -1.108000000     6.455000000
H    -4.628000000    -0.021000000     5.401000000
O    -4.221000000     3.106000000     4.365000000
H    -4.400000000     2.274000000     3.926000000
H    -4.339000000     3.766000000     3.682000000
O    -2.805000000    -5.047000000     5.696000000
H    -2.645000000    -5.855000000     5.209000000
H    -2.656000000    -4.349000000     5.057000000
O    -7.583000000    -2.084000000     2.457000000
H    -7.346000000    -2.694000000     1.759000000
H    -8.314000000    -2.507000000     2.907000000
O    -2.748000000     3.963000000     6.471000000
H    -2.012000000     3.412000000     6.737000000
H    -2.858000000     3.782000000     5.538000000
O    -8.988000000    -0.278000000     0.723000000
H    -8.227000000    -0.497000000     1.261000000
H    -9.722000000    -0.713000000     1.158000000
O    -1.187000000    -1.831000000     7.386000000
H    -2.070000000    -2.041000000     7.693000000
H    -0.608000000    -2.204000000     8.051000000
O    -1.923000000    -2.627000000     4.955000000
H    -2.431000000    -1.894000000     4.608000000
H    -1.737000000    -2.381000000     5.861000000
O    -3.892000000     0.037000000     9.306000000
H    -4.786000000    -0.133000000     9.011000000
H    -3.632000000     0.832000000     8.840000000
O    -4.194000000    -3.011000000     6.633000000
H    -4.640000000    -2.852000000     5.802000000
H    -3.917000000    -3.926000000     6.585000000
O    -5.202000000    -3.121000000     3.819000000
H    -4.407000000    -2.590000000     3.771000000
H    -5.917000000    -2.494000000     3.716000000
O    -1.550000000     1.136000000     6.743000000
H    -1.052000000     0.381000000     7.056000000
H    -2.341000000     0.758000000     6.358000000
O    -9.589000000     0.998000000     4.219000000
H    -8.824000000     0.495000000     3.938000000
H    -9.421000000     1.885000000     3.901000000
O    -7.506000000     3.252000000     5.355000000
H    -6.555000000     3.215000000     5.454000000
H    -7.816000000     3.660000000     6.164000000
