215
-1452.51411
C    -0.151000000    -5.301000000     0.262000000
H     0.905000000    -5.560000000     0.237000000
C    -0.642000000    -4.643000000    -0.846000000
C    -2.018000000    -4.539000000    -1.033000000
H    -2.448000000    -3.906000000    -1.805000000
C     0.233000000    -3.804000000    -1.807000000
O     1.595000000    -4.295000000    -1.939000000
H     0.362000000    -2.797000000    -1.385000000
O    -0.314000000    -3.611000000    -3.116000000
C    -0.200000000    -2.418000000    -3.812000000
C    -1.311000000    -1.668000000    -4.074000000
H    -2.250000000    -2.029000000    -3.662000000
C    -1.179000000    -0.350000000    -4.546000000
O    -2.261000000     0.430000000    -4.554000000
C     0.057000000     0.144000000    -4.920000000
C     0.243000000     1.511000000    -5.485000000
H     1.071000000     1.549000000    -6.197000000
C     0.454000000     2.546000000    -4.398000000
C     1.812000000     2.786000000    -4.062000000
H     2.635000000     2.214000000    -4.483000000
H    -0.657000000     1.774000000    -6.044000000
C     1.162000000    -0.703000000    -4.799000000
H     2.151000000    -0.378000000    -5.113000000
C     1.081000000    -1.953000000    -4.212000000
C     2.368000000    -2.701000000    -4.076000000
H     3.042000000    -2.292000000    -4.832000000
H     2.254000000    -3.763000000    -4.304000000
C     2.991000000    -2.542000000    -2.806000000
C     3.928000000    -1.587000000    -2.548000000
H     4.172000000    -0.842000000    -3.301000000
C     2.624000000    -3.404000000    -1.776000000
C     3.220000000    -3.353000000    -0.595000000
H     2.766000000    -3.930000000     0.207000000
C     4.175000000    -2.362000000    -0.291000000
O     4.458000000    -2.148000000     1.012000000
C     3.772000000    -1.019000000     1.642000000
C     3.295000000    -1.476000000     3.061000000
C     2.892000000    -0.519000000     4.018000000
H     2.854000000     0.533000000     3.747000000
C     3.232000000    -2.851000000     3.327000000
H     3.502000000    -3.563000000     2.552000000
O     4.671000000     0.146000000     1.657000000
H     2.948000000    -0.623000000     1.031000000
C     4.559000000    -1.504000000    -1.314000000
C     5.598000000    -0.413000000    -1.072000000
H     6.280000000    -0.273000000    -1.913000000
H     6.281000000    -0.741000000    -0.285000000
C     4.941000000     0.881000000    -0.641000000
C     4.674000000     1.847000000    -1.619000000
H     5.001000000     1.694000000    -2.644000000
C     4.459000000     1.065000000     0.703000000
C     3.774000000     2.207000000     1.028000000
H     3.452000000     2.410000000     2.046000000
C     3.419000000     3.142000000     0.007000000
O     2.724000000     4.273000000     0.389000000
C     1.354000000     4.177000000     0.059000000
C     0.245000000     4.429000000     1.095000000
C     0.251000000     3.655000000     2.274000000
H     1.132000000     3.060000000     2.499000000
C    -0.754000000     5.381000000     0.890000000
H    -0.871000000     5.839000000    -0.089000000
O     1.176000000     4.925000000    -1.120000000
H     1.216000000     3.159000000    -0.334000000
C     3.866000000     2.888000000    -1.308000000
C     3.492000000     3.784000000    -2.453000000
H     4.210000000     3.681000000    -3.269000000
H     3.670000000     4.767000000    -2.014000000
C     2.050000000     3.656000000    -3.012000000
C     0.966000000     4.273000000    -2.331000000
C    -0.311000000     4.116000000    -2.747000000
H    -1.192000000     4.578000000    -2.308000000
C    -0.567000000     3.140000000    -3.753000000
O    -1.833000000     2.788000000    -4.042000000
C    -2.244000000     1.500000000    -3.466000000
H    -1.504000000     1.166000000    -2.724000000
C    -3.510000000     1.613000000    -2.686000000
C    -4.015000000     0.458000000    -2.108000000
H    -3.653000000    -0.559000000    -2.231000000
C    -4.162000000     2.816000000    -2.420000000
H    -3.878000000     3.675000000    -3.022000000
C    -5.129000000     2.965000000    -1.481000000
O    -5.764000000     4.197000000    -1.327000000
C    -5.668000000     1.767000000    -0.941000000
H    -6.507000000     1.764000000    -0.249000000
C    -5.131000000     0.538000000    -1.279000000
O    -5.684000000    -0.653000000    -0.644000000
C    -5.611000000    -1.878000000    -1.144000000
C    -5.041000000    -2.891000000    -0.393000000
H    -4.688000000    -2.633000000     0.602000000
C    -5.971000000    -2.216000000    -2.450000000
H    -6.353000000    -1.470000000    -3.142000000
C    -5.867000000    -3.521000000    -2.918000000
H    -6.208000000    -3.689000000    -3.937000000
C    -5.254000000    -4.479000000    -2.173000000
H    -5.110000000    -5.471000000    -2.592000000
C    -4.874000000    -4.154000000    -0.893000000
O    -4.262000000    -5.162000000    -0.198000000
C    -2.874000000    -5.138000000    -0.097000000
C    -2.439000000    -5.841000000     1.009000000
H    -3.101000000    -6.336000000     1.715000000
C    -1.052000000    -5.882000000     1.205000000
O    -0.639000000    -6.666000000     2.255000000
C     0.724000000    -6.640000000     2.720000000
C     1.157000000    -5.520000000     3.490000000
H     0.479000000    -4.684000000     3.646000000
C     1.566000000    -7.718000000     2.428000000
H     1.200000000    -8.582000000     1.880000000
C     2.838000000    -7.740000000     3.035000000
H     3.450000000    -8.637000000     2.990000000
C     3.197000000    -6.762000000     3.891000000
H     4.105000000    -6.814000000     4.486000000
C     2.438000000    -5.588000000     4.034000000
O     2.844000000    -4.674000000     4.985000000
C     2.950000000    -3.314000000     4.676000000
C     2.492000000    -2.345000000     5.602000000
H     2.122000000    -2.660000000     6.575000000
C     2.537000000    -0.979000000     5.319000000
O     2.077000000    -0.098000000     6.198000000
C     1.837000000     1.236000000     5.896000000
C     0.721000000     1.614000000     5.209000000
H     0.012000000     0.860000000     4.875000000
C     2.819000000     2.152000000     6.211000000
H     3.700000000     1.850000000     6.771000000
C     2.708000000     3.516000000     5.869000000
H     3.384000000     4.345000000     6.062000000
C     1.497000000     3.936000000     5.237000000
H     1.544000000     4.956000000     4.863000000
C     0.542000000     2.967000000     4.945000000
O    -0.676000000     3.270000000     4.394000000
C    -0.768000000     3.878000000     3.210000000
C    -1.820000000     4.820000000     2.981000000
H    -2.613000000     4.867000000     3.723000000
C    -1.822000000     5.513000000     1.787000000
O    -2.840000000     6.498000000     1.688000000
C    -4.046000000     6.124000000     1.244000000
C    -5.138000000     6.757000000     1.883000000
H    -4.937000000     7.416000000     2.724000000
C    -6.400000000     6.330000000     1.524000000
H    -7.353000000     6.579000000     1.985000000
C    -6.565000000     5.441000000     0.483000000
H    -7.572000000     5.145000000     0.200000000
C    -5.480000000     4.927000000    -0.236000000
C    -4.198000000     5.328000000     0.100000000
H    -3.324000000     5.059000000    -0.488000000
C    -0.671000000    -1.692000000     1.960000000
H    -0.770000000    -2.524000000     2.654000000
C     0.257000000    -1.590000000     0.929000000
H     1.051000000    -2.330000000     0.858000000
C     0.244000000    -0.581000000    -0.015000000
H     1.111000000    -0.551000000    -0.750000000
C    -0.636000000     0.408000000     0.130000000
H    -0.507000000     1.209000000    -0.593000000
C    -1.575000000     0.381000000     1.151000000
H    -2.269000000     1.207000000     1.280000000
C    -1.606000000    -0.681000000     2.091000000
C    -2.647000000    -0.643000000     3.233000000
O    -3.326000000     0.354000000     3.296000000
O    -2.708000000    -1.576000000     4.017000000
O     0.415000000     1.184000000     9.148000000
H     0.971000000     0.405000000     9.164000000
H    -0.164000000     1.049000000     8.398000000
O    -4.930000000    -5.643000000     4.553000000
H    -4.672000000    -4.727000000     4.656000000
H    -4.149000000    -6.140000000     4.796000000
O     0.086000000    -3.168000000     7.733000000
H    -0.478000000    -3.905000000     7.965000000
H    -0.327000000    -2.784000000     6.960000000
O    -7.437000000    -3.499000000     2.571000000
H    -6.540000000    -3.394000000     2.888000000
H    -7.865000000    -4.036000000     3.237000000
O    -6.109000000     1.638000000     6.995000000
H    -6.931000000     1.148000000     7.020000000
H    -5.653000000     1.383000000     7.797000000
O    -4.901000000     2.466000000     2.190000000
H    -4.335000000     1.777000000     2.539000000
H    -4.552000000     2.642000000     1.316000000
O    -1.831000000    -1.563000000     9.215000000
H    -1.076000000    -1.091000000     9.567000000
H    -2.002000000    -1.145000000     8.370000000
O    -5.521000000    -0.145000000     4.723000000
H    -5.547000000     0.674000000     5.217000000
H    -4.667000000    -0.137000000     4.291000000
O    -7.772000000     2.272000000     2.632000000
H    -7.736000000     1.428000000     2.183000000
H    -6.881000000     2.617000000     2.565000000
O    -4.985000000    -2.625000000     3.886000000
H    -4.065000000    -2.414000000     4.041000000
H    -5.448000000    -1.799000000     4.028000000
O    -5.411000000     3.899000000     4.460000000
H    -5.358000000     3.358000000     3.672000000
H    -4.586000000     3.739000000     4.917000000
O    -8.367000000    -2.244000000     0.525000000
H    -7.967000000    -2.618000000     1.310000000
H    -7.997000000    -2.751000000    -0.197000000
O    -2.009000000    -0.937000000     6.602000000
H    -2.000000000    -1.196000000     5.681000000
H    -2.479000000    -0.104000000     6.613000000
O    -2.209000000    -4.039000000     4.857000000
H    -2.241000000    -3.154000000     4.494000000
H    -2.269000000    -3.911000000     5.804000000
O    -1.941000000     2.255000000     7.698000000
H    -2.613000000     2.043000000     8.346000000
H    -2.416000000     2.304000000     6.868000000
O    -2.422000000    -6.726000000     4.715000000
H    -2.321000000    -5.775000000     4.750000000
H    -2.186000000    -6.959000000     3.817000000
O    -3.040000000     2.205000000     5.178000000
H    -2.182000000     2.522000000     4.894000000
H    -3.215000000     1.452000000     4.613000000
O    -8.512000000    -0.932000000     3.731000000
H    -8.138000000    -1.641000000     3.208000000
H    -7.821000000    -0.701000000     4.351000000
O    -5.233000000    -3.508000000     7.396000000
H    -5.117000000    -3.073000000     6.552000000
H    -5.902000000    -2.989000000     7.843000000
