215
-1473.64650
C    -0.536000000    -5.385000000     0.124000000
H     0.530000000    -5.573000000     0.227000000
C    -0.990000000    -4.530000000    -0.900000000
C    -2.369000000    -4.389000000    -1.128000000
H    -2.814000000    -3.777000000    -1.909000000
C     0.014000000    -3.707000000    -1.685000000
O     1.335000000    -4.403000000    -1.681000000
H    -0.011000000    -2.742000000    -1.159000000
O    -0.287000000    -3.579000000    -3.050000000
C    -0.174000000    -2.427000000    -3.791000000
C    -1.217000000    -1.531000000    -3.891000000
H    -2.141000000    -1.659000000    -3.334000000
C    -0.983000000    -0.308000000    -4.497000000
O    -2.139000000     0.517000000    -4.527000000
C     0.287000000     0.064000000    -4.951000000
C     0.552000000     1.379000000    -5.659000000
H     1.409000000     1.469000000    -6.330000000
C     0.691000000     2.483000000    -4.580000000
C     1.994000000     2.762000000    -4.053000000
H     2.850000000     2.191000000    -4.404000000
H    -0.313000000     1.627000000    -6.278000000
C     1.338000000    -0.860000000    -4.939000000
H     2.374000000    -0.610000000    -5.153000000
C     1.040000000    -2.103000000    -4.339000000
C     2.228000000    -3.015000000    -4.033000000
H     2.946000000    -2.821000000    -4.832000000
H     1.898000000    -4.051000000    -4.126000000
C     2.940000000    -2.815000000    -2.710000000
C     3.979000000    -1.919000000    -2.595000000
H     4.215000000    -1.237000000    -3.408000000
C     2.494000000    -3.611000000    -1.658000000
C     3.190000000    -3.456000000    -0.469000000
H     2.791000000    -4.024000000     0.368000000
C     4.273000000    -2.536000000    -0.305000000
O     4.688000000    -2.205000000     0.934000000
C     3.981000000    -1.113000000     1.604000000
C     3.491000000    -1.563000000     3.030000000
C     3.303000000    -0.637000000     3.987000000
H     3.546000000     0.402000000     3.778000000
C     3.094000000    -2.896000000     3.319000000
H     3.272000000    -3.599000000     2.509000000
O     4.760000000     0.054000000     1.583000000
H     3.045000000    -0.855000000     1.086000000
C     4.623000000    -1.767000000    -1.411000000
C     5.567000000    -0.565000000    -1.260000000
H     6.082000000    -0.436000000    -2.215000000
H     6.409000000    -0.818000000    -0.612000000
C     4.925000000     0.733000000    -0.767000000
C     4.531000000     1.703000000    -1.701000000
H     4.706000000     1.537000000    -2.761000000
C     4.579000000     0.953000000     0.576000000
C     3.961000000     2.149000000     0.938000000
H     3.760000000     2.281000000     1.998000000
C     3.615000000     3.110000000    -0.011000000
O     2.737000000     4.127000000     0.332000000
C     1.350000000     4.144000000    -0.048000000
C     0.430000000     4.524000000     1.090000000
C     0.584000000     3.958000000     2.321000000
H     1.498000000     3.397000000     2.493000000
C    -0.642000000     5.402000000     0.909000000
H    -0.801000000     5.842000000    -0.072000000
O     1.158000000     4.935000000    -1.279000000
H     1.029000000     3.121000000    -0.297000000
C     3.852000000     2.861000000    -1.356000000
C     3.551000000     3.875000000    -2.400000000
H     4.242000000     3.789000000    -3.241000000
H     3.687000000     4.918000000    -2.105000000
C     2.168000000     3.665000000    -2.977000000
C     1.005000000     4.256000000    -2.444000000
C    -0.248000000     3.977000000    -2.941000000
H    -1.136000000     4.437000000    -2.515000000
C    -0.415000000     3.164000000    -4.025000000
O    -1.700000000     2.813000000    -4.224000000
C    -2.097000000     1.591000000    -3.533000000
H    -1.386000000     1.333000000    -2.734000000
C    -3.465000000     1.769000000    -2.913000000
C    -3.891000000     0.672000000    -2.106000000
H    -3.447000000    -0.319000000    -2.157000000
C    -4.051000000     3.023000000    -2.712000000
H    -3.696000000     3.925000000    -3.205000000
C    -5.047000000     3.171000000    -1.773000000
O    -5.549000000     4.352000000    -1.421000000
C    -5.523000000     2.097000000    -1.043000000
H    -6.357000000     2.202000000    -0.354000000
C    -4.905000000     0.847000000    -1.221000000
O    -5.468000000    -0.230000000    -0.527000000
C    -5.625000000    -1.520000000    -1.104000000
C    -4.971000000    -2.651000000    -0.583000000
H    -4.306000000    -2.556000000     0.271000000
C    -6.548000000    -1.689000000    -2.145000000
H    -7.020000000    -0.809000000    -2.575000000
C    -6.815000000    -2.974000000    -2.597000000
H    -7.541000000    -3.153000000    -3.386000000
C    -6.212000000    -4.089000000    -2.029000000
H    -6.428000000    -5.083000000    -2.412000000
C    -5.260000000    -3.914000000    -1.053000000
O    -4.647000000    -5.006000000    -0.499000000
C    -3.286000000    -5.074000000    -0.281000000
C    -2.809000000    -5.929000000     0.699000000
H    -3.567000000    -6.539000000     1.184000000
C    -1.414000000    -6.074000000     0.933000000
O    -0.977000000    -6.911000000     2.005000000
C     0.250000000    -6.797000000     2.640000000
C     0.638000000    -5.649000000     3.381000000
H    -0.084000000    -4.844000000     3.487000000
C     1.135000000    -7.916000000     2.699000000
H     0.801000000    -8.788000000     2.143000000
C     2.290000000    -7.893000000     3.474000000
H     2.858000000    -8.805000000     3.638000000
C     2.676000000    -6.701000000     4.149000000
H     3.531000000    -6.782000000     4.815000000
C     1.810000000    -5.616000000     4.150000000
O     2.087000000    -4.501000000     4.963000000
C     2.508000000    -3.292000000     4.550000000
C     2.396000000    -2.327000000     5.550000000
H     2.001000000    -2.569000000     6.534000000
C     2.694000000    -1.056000000     5.249000000
O     2.237000000    -0.114000000     6.111000000
C     2.191000000     1.246000000     5.740000000
C     1.019000000     1.737000000     5.177000000
H     0.094000000     1.189000000     5.013000000
C     3.318000000     2.093000000     5.878000000
H     4.228000000     1.705000000     6.328000000
C     3.232000000     3.502000000     5.584000000
H     4.074000000     4.109000000     5.908000000
C     1.994000000     3.961000000     5.058000000
H     1.838000000     5.003000000     4.789000000
C     0.950000000     3.140000000     4.972000000
O    -0.244000000     3.646000000     4.548000000
C    -0.303000000     4.233000000     3.333000000
C    -1.396000000     5.042000000     3.146000000
H    -2.120000000     5.125000000     3.952000000
C    -1.526000000     5.691000000     1.957000000
O    -2.552000000     6.528000000     1.713000000
C    -3.768000000     6.097000000     1.389000000
C    -4.819000000     6.357000000     2.260000000
H    -4.531000000     6.719000000     3.244000000
C    -6.105000000     5.799000000     1.976000000
H    -6.874000000     5.803000000     2.745000000
C    -6.340000000     5.214000000     0.720000000
H    -7.279000000     4.716000000     0.490000000
C    -5.259000000     4.987000000    -0.166000000
C    -3.931000000     5.319000000     0.254000000
H    -3.129000000     5.081000000    -0.440000000
C    -0.367000000    -0.464000000     2.031000000
H     0.037000000    -1.139000000     2.781000000
C     0.251000000    -0.415000000     0.758000000
H     1.116000000    -1.028000000     0.520000000
C    -0.246000000     0.435000000    -0.243000000
H     0.008000000     0.468000000    -1.299000000
C    -1.302000000     1.263000000     0.043000000
H    -1.826000000     1.914000000    -0.652000000
C    -1.960000000     1.216000000     1.314000000
H    -2.872000000     1.797000000     1.418000000
C    -1.495000000     0.309000000     2.316000000
C    -2.128000000     0.283000000     3.661000000
O    -3.224000000     0.847000000     3.851000000
O    -1.781000000    -0.505000000     4.497000000
O    -5.843000000     2.033000000     5.685000000
H    -5.723000000     2.520000000     4.870000000
H    -6.792000000     1.932000000     5.767000000
O    -6.783000000     3.063000000     8.158000000
H    -6.453000000     2.668000000     7.351000000
H    -6.084000000     2.921000000     8.797000000
O    -6.149000000    -2.096000000     7.178000000
H    -7.050000000    -1.967000000     6.882000000
H    -6.045000000    -1.483000000     7.906000000
O    -5.473000000     0.436000000     2.367000000
H    -4.661000000     0.650000000     2.826000000
H    -5.189000000     0.152000000     1.498000000
O    -3.000000000    -0.262000000     9.386000000
H    -3.415000000     0.196000000     8.655000000
H    -2.730000000    -1.104000000     9.018000000
O    -3.785000000     0.209000000     6.646000000
H    -4.705000000     0.241000000     6.386000000
H    -3.306000000     0.114000000     5.823000000
O    -7.541000000     2.026000000     1.981000000
H    -8.033000000     1.382000000     1.473000000
H    -6.789000000     1.541000000     2.320000000
O    -5.074000000    -3.301000000     3.424000000
H    -5.008000000    -4.245000000     3.565000000
H    -4.249000000    -2.950000000     3.760000000
O    -3.267000000     3.152000000     5.484000000
H    -2.624000000     2.892000000     4.824000000
H    -3.871000000     2.411000000     5.535000000
O    -3.921000000     5.659000000     6.326000000
H    -3.171000000     6.237000000     6.182000000
H    -3.635000000     4.809000000     5.989000000
O    -0.972000000    -0.155000000     7.137000000
H    -1.346000000    -0.500000000     6.326000000
H    -0.027000000    -0.262000000     7.030000000
O    -2.514000000    -3.168000000     4.636000000
H    -2.063000000    -2.370000000     4.358000000
H    -2.820000000    -2.973000000     5.522000000
O    -3.955000000     3.341000000     9.567000000
H    -3.510000000     3.276000000    10.411000000
H    -3.344000000     2.949000000     8.943000000
O     0.186000000     4.421000000     7.833000000
H     0.851000000     3.781000000     8.084000000
H    -0.625000000     3.915000000     7.776000000
O    -1.896000000    -2.761000000     7.833000000
H    -1.038000000    -2.988000000     8.192000000
H    -1.762000000    -1.912000000     7.412000000
O    -2.741000000    -5.915000000     4.925000000
H    -2.729000000    -5.003000000     4.635000000
H    -2.411000000    -5.885000000     5.823000000
O    -1.768000000     2.261000000     7.867000000
H    -2.205000000     2.293000000     7.016000000
H    -1.554000000     1.337000000     7.992000000
O    -7.151000000    -1.643000000     3.851000000
H    -6.478000000    -2.286000000     3.629000000
H    -6.740000000    -0.796000000     3.675000000
O    -4.126000000    -3.999000000     7.033000000
H    -3.318000000    -3.709000000     7.454000000
H    -4.735000000    -3.271000000     7.156000000
