215
-1480.90680
C     0.047000000    -5.471000000     0.331000000
H     1.114000000    -5.652000000     0.430000000
C    -0.542000000    -4.787000000    -0.703000000
C    -1.927000000    -4.623000000    -0.755000000
H    -2.478000000    -4.005000000    -1.459000000
C     0.345000000    -4.000000000    -1.594000000
O     1.673000000    -4.589000000    -1.866000000
H     0.485000000    -3.076000000    -1.015000000
O    -0.420000000    -3.820000000    -2.823000000
C    -0.289000000    -2.650000000    -3.580000000
C    -1.397000000    -1.879000000    -3.578000000
H    -2.318000000    -2.160000000    -3.073000000
C    -1.416000000    -0.679000000    -4.311000000
O    -2.613000000     0.130000000    -4.246000000
C    -0.211000000    -0.237000000    -4.901000000
C    -0.173000000     1.205000000    -5.512000000
H     0.475000000     1.278000000    -6.388000000
C     0.092000000     2.399000000    -4.542000000
C     1.451000000     2.711000000    -4.136000000
H     2.295000000     2.251000000    -4.644000000
H    -1.130000000     1.350000000    -6.016000000
C     0.941000000    -1.018000000    -4.822000000
H     1.906000000    -0.725000000    -5.228000000
C     0.934000000    -2.241000000    -4.259000000
C     2.209000000    -3.142000000    -4.282000000
H     2.841000000    -2.982000000    -5.158000000
H     1.943000000    -4.190000000    -4.432000000
C     2.937000000    -2.938000000    -2.943000000
C     3.800000000    -1.897000000    -2.741000000
H     4.072000000    -1.351000000    -3.641000000
C     2.681000000    -3.744000000    -1.819000000
C     3.316000000    -3.483000000    -0.593000000
H     3.024000000    -4.106000000     0.249000000
C     4.221000000    -2.411000000    -0.445000000
O     4.611000000    -2.125000000     0.819000000
C     3.979000000    -0.953000000     1.377000000
C     3.402000000    -1.277000000     2.761000000
C     2.732000000    -0.250000000     3.361000000
H     2.712000000     0.704000000     2.842000000
C     3.362000000    -2.557000000     3.350000000
H     3.904000000    -3.395000000     2.919000000
O     4.768000000     0.246000000     1.338000000
H     3.132000000    -0.742000000     0.707000000
C     4.453000000    -1.573000000    -1.518000000
C     5.454000000    -0.444000000    -1.393000000
H     5.968000000    -0.260000000    -2.339000000
H     6.290000000    -0.789000000    -0.782000000
C     4.793000000     0.829000000    -0.990000000
C     4.363000000     1.767000000    -1.961000000
H     4.570000000     1.666000000    -3.024000000
C     4.417000000     1.066000000     0.317000000
C     3.698000000     2.201000000     0.591000000
H     3.360000000     2.348000000     1.613000000
C     3.312000000     3.083000000    -0.364000000
O     2.587000000     4.157000000     0.049000000
C     1.148000000     4.182000000    -0.213000000
C     0.408000000     4.723000000     0.974000000
C     0.954000000     4.856000000     2.270000000
H     1.975000000     4.589000000     2.530000000
C    -0.934000000     5.110000000     0.766000000
H    -1.340000000     5.128000000    -0.242000000
O     0.905000000     4.996000000    -1.375000000
H     0.750000000     3.175000000    -0.405000000
C     3.623000000     2.958000000    -1.708000000
C     3.148000000     3.915000000    -2.805000000
H     3.796000000     3.709000000    -3.660000000
H     3.315000000     4.931000000    -2.441000000
C     1.685000000     3.661000000    -3.166000000
C     0.660000000     4.274000000    -2.537000000
C    -0.671000000     4.008000000    -2.928000000
H    -1.551000000     4.373000000    -2.405000000
C    -0.899000000     3.060000000    -3.931000000
O    -2.181000000     2.509000000    -3.973000000
C    -2.542000000     1.230000000    -3.246000000
H    -1.682000000     1.043000000    -2.585000000
C    -3.883000000     1.326000000    -2.473000000
C    -4.524000000     0.183000000    -2.021000000
H    -4.209000000    -0.811000000    -2.327000000
C    -4.412000000     2.563000000    -2.084000000
H    -3.946000000     3.504000000    -2.364000000
C    -5.499000000     2.570000000    -1.218000000
O    -6.085000000     3.742000000    -0.833000000
C    -6.208000000     1.406000000    -0.808000000
H    -7.075000000     1.433000000    -0.153000000
C    -5.660000000     0.179000000    -1.235000000
O    -6.211000000    -0.937000000    -0.746000000
C    -5.905000000    -2.170000000    -1.161000000
C    -5.299000000    -3.057000000    -0.236000000
H    -4.889000000    -2.723000000     0.714000000
C    -6.269000000    -2.574000000    -2.443000000
H    -6.798000000    -1.879000000    -3.090000000
C    -6.005000000    -3.857000000    -2.817000000
H    -6.218000000    -4.246000000    -3.810000000
C    -5.288000000    -4.738000000    -1.978000000
H    -5.042000000    -5.754000000    -2.274000000
C    -4.794000000    -4.280000000    -0.745000000
O    -4.156000000    -5.120000000     0.144000000
C    -2.762000000    -5.252000000     0.191000000
C    -2.170000000    -6.107000000     1.181000000
H    -2.844000000    -6.626000000     1.859000000
C    -0.772000000    -6.120000000     1.283000000
O    -0.289000000    -6.802000000     2.352000000
C     0.935000000    -6.468000000     2.891000000
C     1.086000000    -5.327000000     3.696000000
H     0.218000000    -4.689000000     3.841000000
C     2.066000000    -7.205000000     2.550000000
H     2.014000000    -8.072000000     1.895000000
C     3.315000000    -6.825000000     3.169000000
H     4.166000000    -7.479000000     2.997000000
C     3.437000000    -5.731000000     3.967000000
H     4.415000000    -5.486000000     4.373000000
C     2.293000000    -5.011000000     4.297000000
O     2.458000000    -3.956000000     5.125000000
C     2.664000000    -2.724000000     4.553000000
C     2.141000000    -1.612000000     5.216000000
H     1.756000000    -1.766000000     6.221000000
C     2.175000000    -0.391000000     4.634000000
O     1.634000000     0.669000000     5.340000000
C     2.124000000     1.964000000     5.301000000
C     1.275000000     2.953000000     4.858000000
H     0.282000000     2.751000000     4.465000000
C     3.426000000     2.273000000     5.710000000
H     4.064000000     1.422000000     5.931000000
C     3.855000000     3.606000000     5.699000000
H     4.881000000     3.808000000     5.997000000
C     2.935000000     4.597000000     5.345000000
H     3.195000000     5.652000000     5.355000000
C     1.646000000     4.272000000     4.939000000
O     0.766000000     5.304000000     4.671000000
C     0.198000000     5.362000000     3.329000000
C    -1.064000000     5.858000000     3.130000000
H    -1.661000000     6.319000000     3.913000000
C    -1.643000000     5.685000000     1.841000000
O    -2.878000000     6.205000000     1.583000000
C    -4.116000000     5.606000000     1.494000000
C    -5.032000000     5.679000000     2.562000000
H    -4.616000000     6.025000000     3.505000000
C    -6.322000000     5.169000000     2.476000000
H    -6.977000000     5.088000000     3.341000000
C    -6.639000000     4.490000000     1.329000000
H    -7.633000000     4.052000000     1.285000000
C    -5.724000000     4.409000000     0.297000000
C    -4.462000000     5.017000000     0.357000000
H    -3.746000000     4.993000000    -0.461000000
C    -1.008000000    -1.999000000     2.126000000
H    -0.914000000    -2.677000000     2.971000000
C     0.151000000    -1.667000000     1.388000000
H     1.107000000    -2.124000000     1.633000000
C     0.156000000    -0.677000000     0.415000000
H     1.049000000    -0.508000000    -0.242000000
C    -1.035000000    -0.037000000     0.140000000
H    -1.015000000     0.775000000    -0.582000000
C    -2.214000000    -0.333000000     0.866000000
H    -3.122000000     0.221000000     0.641000000
C    -2.221000000    -1.343000000     1.865000000
C    -3.469000000    -1.603000000     2.677000000
O    -4.388000000    -0.765000000     2.563000000
O    -3.496000000    -2.583000000     3.409000000
O    -0.306000000    -3.040000000     6.463000000
H     0.461000000    -3.278000000     5.941000000
H    -0.681000000    -2.286000000     6.007000000
O    -8.235000000    -1.386000000     7.571000000
H    -9.122000000    -1.745000000     7.548000000
H    -7.915000000    -1.481000000     6.674000000
O    -6.868000000    -0.199000000     2.633000000
H    -5.958000000    -0.412000000     2.429000000
H    -7.371000000    -0.588000000     1.917000000
O    -4.873000000    -1.559000000     5.602000000
H    -5.750000000    -1.682000000     5.239000000
H    -4.292000000    -1.597000000     4.842000000
O    -3.960000000     1.893000000     2.899000000
H    -4.778000000     2.341000000     3.116000000
H    -4.234000000     1.030000000     2.588000000
O    -5.097000000    -4.294000000     6.667000000
H    -4.398000000    -4.924000000     6.493000000
H    -4.719000000    -3.446000000     6.431000000
O    -1.649000000     1.472000000     7.065000000
H    -1.767000000     2.231000000     6.495000000
H    -2.440000000     1.452000000     7.604000000
O    -7.369000000    -4.078000000     5.051000000
H    -6.673000000    -4.034000000     5.707000000
H    -7.539000000    -5.014000000     4.945000000
O    -8.101000000    -1.352000000     4.821000000
H    -8.142000000    -2.300000000     4.695000000
H    -7.594000000    -1.033000000     4.075000000
O    -0.856000000     1.040000000     3.175000000
H    -1.656000000     1.452000000     2.848000000
H    -0.528000000     0.531000000     2.434000000
O    -9.042000000    -1.103000000     0.978000000
H    -9.424000000    -1.980000000     1.002000000
H    -8.596000000    -1.058000000     0.132000000
O    -7.397000000    -6.758000000     2.487000000
H    -7.556000000    -7.043000000     3.387000000
H    -6.606000000    -6.221000000     2.542000000
O    -2.521000000     3.283000000     5.040000000
H    -3.306000000     3.748000000     5.330000000
H    -2.845000000     2.631000000     4.418000000
O    -2.633000000    -4.389000000     5.086000000
H    -2.927000000    -3.885000000     4.327000000
H    -2.010000000    -3.813000000     5.530000000
O    -0.995000000    -0.631000000     5.486000000
H    -1.024000000     0.092000000     6.112000000
H    -0.678000000    -0.233000000     4.675000000
O    -5.712000000    -4.664000000     2.690000000
H    -6.567000000    -4.265000000     2.851000000
H    -5.103000000    -3.925000000     2.675000000
O    -5.219000000    -0.631000000     8.093000000
H    -6.177000000    -0.635000000     8.090000000
H    -4.977000000    -0.836000000     7.190000000
O    -4.198000000    -6.639000000     3.905000000
H    -3.481000000    -6.242000000     4.399000000
H    -4.861000000    -5.952000000     3.851000000
O    -7.253000000     2.288000000     4.168000000
H    -6.536000000     2.805000000     4.533000000
H    -6.914000000     1.393000000     4.141000000
