215
-1452.76048
C    -0.946000000    -4.433000000     0.777000000
H     0.106000000    -4.254000000     0.986000000
C    -1.453000000    -4.198000000    -0.511000000
C    -2.854000000    -4.396000000    -0.796000000
H    -3.222000000    -4.216000000    -1.803000000
C    -0.526000000    -3.643000000    -1.575000000
O     0.744000000    -4.309000000    -1.514000000
H    -0.360000000    -2.577000000    -1.357000000
O    -0.989000000    -3.850000000    -2.942000000
C    -0.842000000    -2.766000000    -3.788000000
C    -1.908000000    -1.789000000    -3.844000000
H    -2.798000000    -1.898000000    -3.230000000
C    -1.794000000    -0.543000000    -4.436000000
O    -2.825000000     0.333000000    -4.391000000
C    -0.558000000    -0.257000000    -5.023000000
C    -0.351000000     1.116000000    -5.650000000
H     0.342000000     1.014000000    -6.487000000
C     0.145000000     2.214000000    -4.723000000
C     1.489000000     2.396000000    -4.533000000
H     2.179000000     1.850000000    -5.171000000
H    -1.192000000     1.457000000    -6.258000000
C     0.496000000    -1.161000000    -4.894000000
H     1.363000000    -0.866000000    -5.480000000
C     0.400000000    -2.382000000    -4.256000000
C     1.557000000    -3.329000000    -4.123000000
H     2.162000000    -3.298000000    -5.031000000
H     1.174000000    -4.351000000    -4.075000000
C     2.323000000    -3.141000000    -2.908000000
C     3.439000000    -2.309000000    -2.967000000
H     3.687000000    -1.896000000    -3.942000000
C     1.936000000    -3.623000000    -1.651000000
C     2.750000000    -3.473000000    -0.533000000
H     2.443000000    -3.856000000     0.436000000
C     3.891000000    -2.687000000    -0.636000000
O     4.581000000    -2.473000000     0.511000000
C     4.124000000    -1.351000000     1.314000000
C     4.058000000    -1.633000000     2.826000000
C     4.396000000    -0.566000000     3.720000000
H     4.561000000     0.429000000     3.315000000
C     3.456000000    -2.784000000     3.336000000
H     3.235000000    -3.618000000     2.676000000
O     5.050000000    -0.330000000     0.996000000
H     3.093000000    -1.065000000     1.059000000
C     4.286000000    -2.118000000    -1.874000000
C     5.445000000    -1.118000000    -1.832000000
H     5.735000000    -0.988000000    -2.877000000
H     6.367000000    -1.388000000    -1.313000000
C     4.852000000     0.163000000    -1.379000000
C     4.465000000     1.055000000    -2.375000000
H     4.554000000     0.871000000    -3.443000000
C     4.728000000     0.511000000    -0.047000000
C     4.384000000     1.791000000     0.259000000
H     4.381000000     2.105000000     1.300000000
C     3.840000000     2.647000000    -0.672000000
O     3.122000000     3.777000000    -0.241000000
C     1.684000000     3.874000000    -0.485000000
C     0.916000000     4.240000000     0.820000000
C     1.420000000     3.783000000     2.009000000
H     2.370000000     3.256000000     1.974000000
C    -0.265000000     5.002000000     0.809000000
H    -0.629000000     5.427000000    -0.122000000
O     1.382000000     4.661000000    -1.617000000
H     1.306000000     2.866000000    -0.709000000
C     3.866000000     2.288000000    -2.046000000
C     3.443000000     3.236000000    -3.166000000
H     4.033000000     3.132000000    -4.080000000
H     3.671000000     4.264000000    -2.876000000
C     1.925000000     3.240000000    -3.534000000
C     0.993000000     3.912000000    -2.733000000
C    -0.369000000     3.762000000    -2.954000000
H    -1.072000000     4.208000000    -2.255000000
C    -0.833000000     2.899000000    -3.895000000
O    -2.158000000     2.661000000    -3.996000000
C    -2.690000000     1.396000000    -3.454000000
H    -1.953000000     1.075000000    -2.703000000
C    -3.877000000     1.553000000    -2.572000000
C    -4.545000000     0.477000000    -1.994000000
H    -4.405000000    -0.519000000    -2.406000000
C    -4.272000000     2.846000000    -2.131000000
H    -3.805000000     3.715000000    -2.589000000
C    -5.061000000     3.033000000    -1.067000000
O    -5.423000000     4.277000000    -0.659000000
C    -5.645000000     1.948000000    -0.474000000
H    -6.267000000     2.118000000     0.401000000
C    -5.428000000     0.684000000    -0.935000000
O    -6.248000000    -0.227000000    -0.353000000
C    -6.390000000    -1.538000000    -0.851000000
C    -5.679000000    -2.564000000    -0.241000000
H    -5.064000000    -2.335000000     0.626000000
C    -7.092000000    -1.715000000    -2.048000000
H    -7.657000000    -0.931000000    -2.546000000
C    -7.077000000    -3.023000000    -2.604000000
H    -7.710000000    -3.193000000    -3.471000000
C    -6.349000000    -4.141000000    -2.021000000
H    -6.438000000    -5.175000000    -2.342000000
C    -5.724000000    -3.871000000    -0.754000000
O    -5.116000000    -4.902000000    -0.053000000
C    -3.741000000    -4.862000000     0.227000000
C    -3.290000000    -4.895000000     1.482000000
H    -4.004000000    -5.041000000     2.289000000
C    -1.928000000    -4.733000000     1.740000000
O    -1.532000000    -4.770000000     3.044000000
C    -0.277000000    -5.230000000     3.414000000
C     0.555000000    -4.410000000     4.207000000
H     0.172000000    -3.432000000     4.486000000
C     0.099000000    -6.463000000     3.029000000
H    -0.585000000    -7.041000000     2.412000000
C     1.345000000    -6.914000000     3.406000000
H     1.743000000    -7.871000000     3.080000000
C     2.220000000    -6.089000000     4.123000000
H     3.228000000    -6.473000000     4.258000000
C     1.814000000    -4.848000000     4.564000000
O     2.700000000    -4.116000000     5.267000000
C     3.198000000    -2.917000000     4.708000000
C     3.516000000    -1.867000000     5.527000000
H     3.292000000    -1.893000000     6.590000000
C     4.104000000    -0.745000000     5.075000000
O     4.242000000     0.308000000     5.926000000
C     3.938000000     1.571000000     5.541000000
C     2.598000000     1.945000000     5.251000000
H     1.819000000     1.191000000     5.178000000
C     4.994000000     2.441000000     5.484000000
H     6.030000000     2.245000000     5.749000000
C     4.759000000     3.762000000     5.014000000
H     5.565000000     4.450000000     4.774000000
C     3.512000000     4.168000000     4.658000000
H     3.333000000     5.125000000     4.174000000
C     2.428000000     3.267000000     4.807000000
O     1.192000000     3.745000000     4.489000000
C     0.777000000     4.076000000     3.204000000
C    -0.358000000     4.863000000     3.198000000
H    -0.867000000     5.086000000     4.132000000
C    -0.937000000     5.210000000     2.049000000
O    -1.982000000     6.089000000     2.052000000
C    -3.322000000     5.722000000     1.824000000
C    -4.245000000     6.041000000     2.798000000
H    -3.933000000     6.541000000     3.712000000
C    -5.568000000     5.651000000     2.716000000
H    -6.305000000     5.816000000     3.498000000
C    -5.958000000     5.010000000     1.560000000
H    -6.996000000     4.712000000     1.440000000
C    -5.028000000     4.770000000     0.564000000
C    -3.706000000     5.190000000     0.653000000
H    -3.080000000     5.110000000    -0.232000000
C    -1.422000000    -1.127000000     2.036000000
H    -1.246000000    -2.017000000     2.634000000
C    -0.541000000    -0.742000000     1.008000000
H     0.436000000    -1.215000000     1.073000000
C    -0.946000000     0.163000000     0.050000000
H    -0.286000000     0.506000000    -0.722000000
C    -2.158000000     0.811000000     0.176000000
H    -2.352000000     1.668000000    -0.464000000
C    -3.033000000     0.474000000     1.205000000
H    -4.032000000     0.895000000     1.282000000
C    -2.728000000    -0.631000000     2.040000000
C    -3.720000000    -1.132000000     3.048000000
O    -4.898000000    -1.060000000     2.801000000
O    -3.368000000    -1.715000000     4.085000000
O    -3.856000000    -6.925000000     4.436000000
H    -3.201000000    -7.367000000     4.975000000
H    -3.744000000    -5.996000000     4.636000000
O    -2.122000000    -4.463000000     7.098000000
H    -1.666000000    -4.371000000     7.934000000
H    -2.251000000    -5.406000000     6.997000000
O    -4.134000000    -3.050000000     8.244000000
H    -4.327000000    -2.215000000     7.817000000
H    -3.303000000    -3.329000000     7.860000000
O    -7.343000000    -0.224000000     2.398000000
H    -6.449000000    -0.537000000     2.533000000
H    -7.620000000    -0.638000000     1.581000000
O    -5.246000000    -1.714000000     5.976000000
H    -5.834000000    -1.157000000     5.468000000
H    -4.470000000    -1.811000000     5.424000000
O    -4.644000000     1.514000000     4.532000000
H    -3.748000000     1.695000000     4.245000000
H    -4.916000000     0.762000000     4.006000000
O    -6.974000000    -3.860000000     6.250000000
H    -6.143000000    -3.410000000     6.101000000
H    -7.577000000    -3.466000000     5.619000000
O    -0.194000000    -1.336000000     8.160000000
H    -0.018000000    -2.195000000     8.543000000
H    -0.436000000    -1.522000000     7.253000000
O    -7.583000000    -0.747000000     5.120000000
H    -7.467000000    -0.847000000     4.176000000
H    -8.246000000    -0.062000000     5.208000000
O    -7.207000000    -0.007000000     7.891000000
H    -8.076000000    -0.364000000     7.706000000
H    -6.625000000    -0.472000000     7.290000000
O    -2.034000000     2.037000000     4.406000000
H    -1.682000000     1.858000000     5.278000000
H    -1.260000000     2.119000000     3.848000000
O    -8.569000000    -3.174000000     1.940000000
H    -7.759000000    -3.472000000     2.353000000
H    -8.929000000    -3.957000000     1.524000000
O    -3.960000000     3.706000000     6.453000000
H    -4.517000000     3.275000000     7.102000000
H    -4.135000000     3.235000000     5.637000000
O    -3.812000000    -4.238000000     4.894000000
H    -3.552000000    -3.403000000     4.505000000
H    -3.421000000    -4.228000000     5.768000000
O    -2.643000000     0.207000000     8.394000000
H    -1.761000000     0.469000000     8.129000000
H    -3.201000000     0.470000000     7.662000000
O    -7.191000000     2.480000000     5.178000000
H    -7.106000000     2.874000000     6.047000000
H    -6.372000000     2.002000000     5.051000000
O    -1.255000000    -1.243000000     5.559000000
H    -0.669000000    -0.645000000     5.095000000
H    -1.940000000    -1.448000000     4.922000000
O    -6.298000000    -3.559000000     3.429000000
H    -5.600000000    -4.026000000     3.887000000
H    -5.848000000    -2.864000000     2.949000000
O    -8.201000000     2.687000000     2.426000000
H    -7.747000000     2.589000000     3.264000000
H    -8.275000000     1.794000000     2.089000000
