215
-1454.27894
C     0.285000000    -5.931000000    -0.253000000
H     1.315000000    -5.670000000    -0.023000000
C    -0.310000000    -5.121000000    -1.206000000
C    -1.743000000    -5.165000000    -1.366000000
H    -2.132000000    -4.449000000    -2.085000000
C     0.472000000    -4.041000000    -1.936000000
O     1.888000000    -4.352000000    -1.987000000
H     0.349000000    -3.060000000    -1.454000000
O    -0.045000000    -3.949000000    -3.233000000
C    -0.047000000    -2.767000000    -3.924000000
C    -1.176000000    -2.046000000    -3.941000000
H    -2.131000000    -2.385000000    -3.549000000
C    -1.235000000    -0.759000000    -4.517000000
O    -2.406000000    -0.081000000    -4.355000000
C    -0.007000000    -0.181000000    -4.998000000
C     0.086000000     1.257000000    -5.445000000
H     0.871000000     1.470000000    -6.173000000
C     0.197000000     2.215000000    -4.276000000
C     1.404000000     2.747000000    -3.996000000
H     2.308000000     2.365000000    -4.461000000
H    -0.841000000     1.481000000    -5.976000000
C     1.110000000    -0.944000000    -5.060000000
H     1.979000000    -0.471000000    -5.511000000
C     1.124000000    -2.210000000    -4.472000000
C     2.481000000    -2.911000000    -4.355000000
H     3.100000000    -2.813000000    -5.249000000
H     2.300000000    -3.986000000    -4.413000000
C     3.202000000    -2.606000000    -3.040000000
C     4.063000000    -1.474000000    -2.880000000
H     4.169000000    -0.786000000    -3.714000000
C     2.813000000    -3.334000000    -1.909000000
C     3.356000000    -3.079000000    -0.661000000
H     3.051000000    -3.682000000     0.190000000
C     4.225000000    -2.010000000    -0.459000000
O     4.528000000    -1.716000000     0.843000000
C     3.970000000    -0.524000000     1.449000000
C     3.437000000    -0.720000000     2.890000000
C     3.455000000     0.223000000     3.880000000
H     3.947000000     1.178000000     3.715000000
C     2.586000000    -1.800000000     3.059000000
H     2.299000000    -2.398000000     2.197000000
O     4.903000000     0.564000000     1.438000000
H     3.102000000    -0.267000000     0.823000000
C     4.588000000    -1.170000000    -1.605000000
C     5.527000000    -0.064000000    -1.339000000
H     6.137000000     0.016000000    -2.240000000
H     6.139000000    -0.363000000    -0.486000000
C     4.858000000     1.254000000    -0.949000000
C     4.362000000     2.107000000    -1.957000000
H     4.585000000     1.948000000    -3.009000000
C     4.530000000     1.494000000     0.451000000
C     3.753000000     2.605000000     0.809000000
H     3.557000000     2.857000000     1.848000000
C     3.267000000     3.424000000    -0.187000000
O     2.383000000     4.413000000     0.223000000
C     0.947000000     4.229000000     0.027000000
C     0.130000000     4.682000000     1.268000000
C     0.557000000     4.453000000     2.560000000
H     1.476000000     3.909000000     2.760000000
C    -1.176000000     5.083000000     1.025000000
H    -1.461000000     5.189000000    -0.019000000
O     0.603000000     4.903000000    -1.162000000
H     0.717000000     3.166000000    -0.140000000
C     3.563000000     3.168000000    -1.567000000
C     2.974000000     4.064000000    -2.671000000
H     3.581000000     4.093000000    -3.579000000
H     2.989000000     5.125000000    -2.413000000
C     1.545000000     3.705000000    -2.987000000
C     0.478000000     4.069000000    -2.255000000
C    -0.775000000     3.630000000    -2.623000000
H    -1.644000000     3.907000000    -2.031000000
C    -0.931000000     2.722000000    -3.624000000
O    -2.167000000     2.223000000    -3.917000000
C    -2.381000000     0.893000000    -3.309000000
H    -1.710000000     0.577000000    -2.497000000
C    -3.576000000     0.835000000    -2.440000000
C    -3.994000000    -0.353000000    -1.886000000
H    -3.461000000    -1.264000000    -2.147000000
C    -4.191000000     2.040000000    -1.963000000
H    -3.865000000     3.032000000    -2.265000000
C    -5.278000000     1.981000000    -1.121000000
O    -6.046000000     3.090000000    -0.790000000
C    -5.761000000     0.739000000    -0.701000000
H    -6.627000000     0.651000000    -0.051000000
C    -5.072000000    -0.395000000    -0.996000000
O    -5.480000000    -1.561000000    -0.456000000
C    -5.487000000    -2.742000000    -1.173000000
C    -4.868000000    -3.886000000    -0.567000000
H    -4.544000000    -3.954000000     0.468000000
C    -5.955000000    -2.824000000    -2.494000000
H    -6.397000000    -1.936000000    -2.939000000
C    -5.798000000    -4.050000000    -3.190000000
H    -6.185000000    -4.141000000    -4.202000000
C    -5.169000000    -5.120000000    -2.565000000
H    -4.909000000    -6.010000000    -3.134000000
C    -4.708000000    -5.068000000    -1.284000000
O    -3.965000000    -6.096000000    -0.774000000
C    -2.565000000    -5.999000000    -0.620000000
C    -1.979000000    -6.710000000     0.389000000
H    -2.597000000    -7.238000000     1.110000000
C    -0.623000000    -6.599000000     0.598000000
O    -0.146000000    -7.051000000     1.814000000
C     0.714000000    -6.365000000     2.722000000
C     0.505000000    -5.105000000     3.264000000
H    -0.416000000    -4.570000000     3.049000000
C     1.916000000    -6.967000000     2.976000000
H     2.099000000    -7.939000000     2.525000000
C     2.966000000    -6.252000000     3.599000000
H     3.875000000    -6.809000000     3.814000000
C     2.748000000    -4.996000000     4.143000000
H     3.499000000    -4.569000000     4.802000000
C     1.508000000    -4.388000000     3.961000000
O     1.157000000    -3.158000000     4.507000000
C     2.002000000    -2.069000000     4.312000000
C     2.160000000    -1.182000000     5.361000000
H     1.648000000    -1.379000000     6.300000000
C     2.868000000    -0.008000000     5.139000000
O     3.028000000     0.931000000     6.231000000
C     2.757000000     2.298000000     6.158000000
C     1.474000000     2.680000000     5.593000000
H     0.585000000     2.063000000     5.488000000
C     3.795000000     3.204000000     6.196000000
H     4.794000000     2.945000000     6.537000000
C     3.534000000     4.599000000     5.940000000
H     4.292000000     5.363000000     6.091000000
C     2.276000000     4.998000000     5.414000000
H     2.193000000     6.032000000     5.089000000
C     1.299000000     4.024000000     5.246000000
O    -0.007000000     4.425000000     4.857000000
C    -0.341000000     4.610000000     3.557000000
C    -1.610000000     5.140000000     3.335000000
H    -2.335000000     5.416000000     4.097000000
C    -2.016000000     5.461000000     2.070000000
O    -3.146000000     6.055000000     1.709000000
C    -4.344000000     5.410000000     1.525000000
C    -5.410000000     5.606000000     2.484000000
H    -5.163000000     6.193000000     3.365000000
C    -6.649000000     5.028000000     2.311000000
H    -7.530000000     5.153000000     2.936000000
C    -6.862000000     4.233000000     1.145000000
H    -7.810000000     3.742000000     0.944000000
C    -5.825000000     3.915000000     0.234000000
C    -4.554000000     4.492000000     0.491000000
H    -3.743000000     4.251000000    -0.192000000
C    -0.778000000    -1.526000000     1.469000000
H    -0.809000000    -2.253000000     2.277000000
C     0.178000000    -1.601000000     0.495000000
H     0.893000000    -2.412000000     0.606000000
C     0.389000000    -0.600000000    -0.481000000
H     1.231000000    -0.567000000    -1.172000000
C    -0.532000000     0.485000000    -0.464000000
H    -0.435000000     1.321000000    -1.152000000
C    -1.608000000     0.532000000     0.478000000
H    -2.257000000     1.404000000     0.484000000
C    -1.661000000    -0.435000000     1.474000000
C    -2.750000000    -0.402000000     2.556000000
O    -3.671000000     0.373000000     2.460000000
O    -2.684000000    -1.167000000     3.545000000
O    -2.536000000    -3.895000000     8.156000000
H    -2.807000000    -3.286000000     8.842000000
H    -2.050000000    -3.354000000     7.533000000
O    -6.224000000     0.465000000     4.784000000
H    -6.044000000     0.318000000     3.855000000
H    -5.420000000     0.200000000     5.229000000
O    -5.901000000    -0.993000000     2.389000000
H    -4.998000000    -0.688000000     2.291000000
H    -6.121000000    -1.367000000     1.536000000
O    -3.961000000    -0.280000000     5.858000000
H    -3.539000000    -0.465000000     5.019000000
H    -4.138000000    -1.143000000     6.233000000
O    -3.300000000     2.779000000     3.490000000
H    -3.696000000     3.434000000     2.915000000
H    -3.471000000     1.944000000     3.055000000
O    -5.083000000    -4.044000000     6.163000000
H    -4.131000000    -3.945000000     6.159000000
H    -5.315000000    -4.163000000     5.242000000
O    -2.163000000     0.189000000     8.760000000
H    -3.120000000     0.182000000     8.798000000
H    -1.914000000    -0.734000000     8.814000000
O    -9.711000000     1.283000000     3.974000000
H    -9.400000000     1.748000000     4.750000000
H    -9.081000000     0.573000000     3.852000000
O    -8.082000000    -3.408000000     2.759000000
H    -8.606000000    -3.518000000     1.966000000
H    -7.330000000    -3.987000000     2.631000000
O    -8.409000000    -0.934000000     3.289000000
H    -8.601000000    -1.838000000     3.039000000
H    -7.509000000    -0.790000000     2.994000000
O    -0.936000000    -0.102000000     5.427000000
H    -0.210000000     0.444000000     5.125000000
H    -1.445000000    -0.283000000     4.637000000
O    -8.794000000    -3.677000000     5.460000000
H    -9.465000000    -4.273000000     5.129000000
H    -8.312000000    -3.401000000     4.681000000
O    -6.375000000    -5.492000000     2.002000000
H    -6.171000000    -6.303000000     2.468000000
H    -5.713000000    -4.870000000     2.303000000
O    -3.210000000     2.261000000     6.341000000
H    -3.203000000     1.304000000     6.343000000
H    -2.770000000     2.502000000     5.525000000
O    -2.644000000    -3.635000000     4.861000000
H    -2.557000000    -2.868000000     4.296000000
H    -1.818000000    -3.672000000     5.344000000
O    -0.821000000    -2.413000000     6.734000000
H     0.053000000    -2.372000000     7.123000000
H    -0.871000000    -1.639000000     6.173000000
O    -4.782000000    -0.126000000     8.962000000
H    -5.578000000    -0.646000000     8.854000000
H    -5.078000000     0.782000000     8.906000000
O    -4.758000000    -3.620000000     3.188000000
H    -4.976000000    -2.689000000     3.165000000
H    -3.955000000    -3.666000000     3.707000000
O    -5.979000000     2.420000000     6.715000000
H    -6.294000000     1.810000000     6.047000000
H    -5.032000000     2.453000000     6.581000000
