215
-1451.01990
C    -0.807000000    -4.504000000     0.594000000
H     0.268000000    -4.663000000     0.622000000
C    -1.343000000    -3.940000000    -0.601000000
C    -2.728000000    -3.665000000    -0.645000000
H    -3.123000000    -3.275000000    -1.580000000
C    -0.336000000    -3.572000000    -1.683000000
O     0.913000000    -4.338000000    -1.541000000
H    -0.096000000    -2.507000000    -1.553000000
O    -0.840000000    -3.743000000    -2.974000000
C    -0.671000000    -2.694000000    -3.847000000
C    -1.771000000    -1.852000000    -4.048000000
H    -2.743000000    -2.031000000    -3.596000000
C    -1.693000000    -0.686000000    -4.714000000
O    -2.736000000     0.160000000    -4.642000000
C    -0.483000000    -0.281000000    -5.288000000
C    -0.396000000     1.163000000    -5.806000000
H     0.304000000     1.216000000    -6.642000000
C     0.041000000     2.032000000    -4.615000000
C     1.395000000     2.198000000    -4.262000000
H     2.133000000     1.706000000    -4.890000000
H    -1.375000000     1.466000000    -6.184000000
C     0.659000000    -1.082000000    -5.086000000
H     1.646000000    -0.759000000    -5.405000000
C     0.543000000    -2.320000000    -4.399000000
C     1.734000000    -3.264000000    -4.138000000
H     2.401000000    -3.009000000    -4.965000000
H     1.514000000    -4.333000000    -4.141000000
C     2.513000000    -3.035000000    -2.773000000
C     3.626000000    -2.112000000    -2.696000000
H     3.879000000    -1.427000000    -3.502000000
C     2.053000000    -3.685000000    -1.578000000
C     2.757000000    -3.515000000    -0.371000000
H     2.482000000    -4.005000000     0.560000000
C     3.823000000    -2.646000000    -0.340000000
O     4.362000000    -2.301000000     0.888000000
C     3.916000000    -1.084000000     1.613000000
C     3.834000000    -1.268000000     3.080000000
C     3.607000000    -0.157000000     3.851000000
H     3.626000000     0.838000000     3.415000000
C     3.671000000    -2.501000000     3.594000000
H     3.698000000    -3.367000000     2.937000000
O     4.797000000     0.012000000     1.365000000
H     2.892000000    -0.893000000     1.256000000
C     4.230000000    -1.946000000    -1.469000000
C     5.372000000    -0.943000000    -1.442000000
H     5.855000000    -1.036000000    -2.416000000
H     6.055000000    -1.253000000    -0.648000000
C     4.860000000     0.438000000    -1.062000000
C     4.537000000     1.305000000    -2.077000000
H     4.624000000     0.991000000    -3.114000000
C     4.678000000     0.864000000     0.268000000
C     4.164000000     2.079000000     0.513000000
H     3.947000000     2.464000000     1.506000000
C     3.761000000     2.912000000    -0.483000000
O     3.089000000     4.073000000    -0.212000000
C     1.653000000     3.814000000    -0.175000000
C     0.873000000     4.451000000     1.021000000
C     1.579000000     4.637000000     2.188000000
H     2.645000000     4.437000000     2.246000000
C    -0.469000000     4.736000000     0.934000000
H    -1.064000000     4.565000000     0.041000000
O     1.139000000     4.538000000    -1.386000000
H     1.412000000     2.742000000    -0.229000000
C     3.915000000     2.584000000    -1.828000000
C     3.329000000     3.328000000    -2.978000000
H     3.949000000     3.120000000    -3.853000000
H     3.417000000     4.413000000    -2.888000000
C     1.810000000     3.048000000    -3.248000000
C     0.809000000     3.761000000    -2.536000000
C    -0.581000000     3.550000000    -2.864000000
H    -1.367000000     3.985000000    -2.253000000
C    -0.928000000     2.690000000    -3.884000000
O    -2.255000000     2.419000000    -4.077000000
C    -2.791000000     1.160000000    -3.637000000
H    -2.216000000     0.766000000    -2.786000000
C    -4.182000000     1.364000000    -3.093000000
C    -5.182000000     0.402000000    -3.158000000
H    -5.083000000    -0.536000000    -3.699000000
C    -4.415000000     2.564000000    -2.388000000
H    -3.629000000     3.312000000    -2.343000000
C    -5.597000000     2.798000000    -1.679000000
O    -5.709000000     3.917000000    -0.869000000
C    -6.551000000     1.764000000    -1.615000000
H    -7.482000000     1.884000000    -1.066000000
C    -6.338000000     0.598000000    -2.379000000
O    -7.219000000    -0.398000000    -2.156000000
C    -6.833000000    -1.662000000    -1.961000000
C    -6.033000000    -2.042000000    -0.838000000
H    -5.821000000    -1.288000000    -0.085000000
C    -7.237000000    -2.659000000    -2.805000000
H    -7.930000000    -2.402000000    -3.602000000
C    -6.716000000    -3.986000000    -2.658000000
H    -6.990000000    -4.754000000    -3.377000000
C    -5.864000000    -4.318000000    -1.604000000
H    -5.457000000    -5.324000000    -1.542000000
C    -5.616000000    -3.379000000    -0.596000000
O    -4.881000000    -3.766000000     0.504000000
C    -3.517000000    -3.915000000     0.479000000
C    -2.912000000    -4.428000000     1.648000000
H    -3.499000000    -4.559000000     2.553000000
C    -1.584000000    -4.742000000     1.717000000
O    -1.050000000    -5.105000000     2.902000000
C     0.252000000    -5.444000000     3.268000000
C     0.990000000    -4.605000000     4.201000000
H     0.440000000    -3.775000000     4.637000000
C     0.908000000    -6.540000000     2.667000000
H     0.419000000    -7.245000000     1.999000000
C     2.245000000    -6.867000000     3.045000000
H     2.722000000    -7.789000000     2.725000000
C     2.982000000    -6.099000000     4.011000000
H     4.032000000    -6.209000000     4.270000000
C     2.338000000    -4.873000000     4.465000000
O     3.032000000    -4.012000000     5.323000000
C     3.217000000    -2.714000000     4.929000000
C     3.119000000    -1.585000000     5.751000000
H     2.946000000    -1.727000000     6.814000000
C     3.183000000    -0.371000000     5.168000000
O     2.833000000     0.761000000     5.943000000
C     3.102000000     2.128000000     5.715000000
C     2.265000000     3.040000000     5.062000000
H     1.280000000     2.779000000     4.684000000
C     4.365000000     2.611000000     6.115000000
H     5.036000000     1.982000000     6.693000000
C     4.883000000     3.856000000     5.763000000
H     5.911000000     4.131000000     5.984000000
C     3.922000000     4.778000000     5.237000000
H     4.197000000     5.802000000     4.998000000
C     2.621000000     4.377000000     4.916000000
O     1.706000000     5.379000000     4.473000000
C     0.933000000     5.237000000     3.305000000
C    -0.410000000     5.536000000     3.250000000
H    -0.868000000     5.995000000     4.122000000
C    -1.096000000     5.288000000     2.081000000
O    -2.390000000     5.813000000     1.949000000
C    -3.477000000     4.995000000     1.763000000
C    -3.988000000     4.335000000     2.846000000
H    -3.592000000     4.589000000     3.826000000
C    -4.890000000     3.301000000     2.643000000
H    -5.294000000     2.774000000     3.504000000
C    -5.503000000     3.186000000     1.381000000
H    -6.352000000     2.521000000     1.245000000
C    -5.071000000     3.984000000     0.300000000
C    -3.950000000     4.818000000     0.481000000
H    -3.641000000     5.564000000    -0.247000000
C    -0.739000000    -1.309000000     1.638000000
H    -0.024000000    -1.613000000     2.398000000
C    -0.311000000    -0.947000000     0.375000000
H     0.742000000    -1.139000000     0.190000000
C    -1.157000000    -0.415000000    -0.563000000
H    -0.679000000    -0.141000000    -1.518000000
C    -2.463000000    -0.106000000    -0.208000000
H    -3.082000000     0.284000000    -1.011000000
C    -2.911000000    -0.361000000     1.121000000
H    -3.966000000    -0.171000000     1.304000000
C    -2.057000000    -0.964000000     2.055000000
C    -2.553000000    -1.381000000     3.453000000
O    -3.635000000    -0.972000000     3.786000000
O    -1.733000000    -1.654000000     4.302000000
O    -1.549000000    -3.386000000     8.972000000
H    -2.029000000    -2.722000000     8.477000000
H    -1.321000000    -4.050000000     8.323000000
O    -3.394000000    -6.865000000     4.207000000
H    -2.823000000    -7.429000000     4.729000000
H    -3.173000000    -5.976000000     4.486000000
O    -1.066000000    -5.502000000     7.194000000
H    -0.119000000    -5.460000000     7.328000000
H    -1.200000000    -6.303000000     6.688000000
O    -6.063000000    -1.441000000     2.775000000
H    -6.302000000    -2.271000000     3.187000000
H    -5.169000000    -1.274000000     3.073000000
O    -4.039000000     0.301000000     5.896000000
H    -4.828000000    -0.062000000     6.297000000
H    -3.973000000    -0.143000000     5.050000000
O    -2.807000000     2.550000000     6.934000000
H    -3.236000000     1.783000000     6.555000000
H    -1.881000000     2.440000000     6.715000000
O    -6.715000000    -1.230000000     6.822000000
H    -6.886000000    -1.416000000     7.745000000
H    -6.392000000    -2.057000000     6.466000000
O    -0.740000000    -1.347000000     6.828000000
H    -1.019000000    -1.565000000     5.938000000
H    -0.982000000    -0.427000000     6.935000000
O    -1.362000000     2.170000000     1.889000000
H    -1.299000000     1.533000000     1.177000000
H    -2.142000000     2.685000000     1.680000000
O    -5.929000000    -3.504000000     5.509000000
H    -4.975000000    -3.538000000     5.452000000
H    -6.232000000    -4.099000000     4.823000000
O    -2.051000000    -0.420000000     9.775000000
H    -1.510000000    -1.015000000     9.255000000
H    -1.450000000     0.273000000    10.048000000
O     1.135000000    -2.323000000     8.530000000
H     0.970000000    -2.074000000     9.440000000
H     0.476000000    -1.845000000     8.027000000
O    -2.932000000    -3.905000000     5.400000000
H    -2.545000000    -3.200000000     4.881000000
H    -2.273000000    -4.101000000     6.066000000
O    -3.752000000    -2.127000000     7.762000000
H    -3.635000000    -1.605000000     6.969000000
H    -4.037000000    -1.497000000     8.424000000
O    -0.760000000     0.720000000     4.996000000
H    -0.619000000     1.099000000     4.129000000
H    -1.104000000    -0.156000000     4.822000000
O    -6.465000000    -4.927000000     2.935000000
H    -6.098000000    -5.775000000     3.183000000
H    -6.009000000    -4.696000000     2.126000000
O     0.513000000     1.158000000     7.609000000
H     0.252000000     0.844000000     6.743000000
H     1.398000000     0.814000000     7.732000000
O    -4.875000000    -4.401000000     8.687000000
H    -4.261000000    -3.756000000     8.334000000
H    -5.325000000    -3.940000000     9.395000000
O    -7.490000000     1.221000000     3.388000000
H    -7.879000000     0.853000000     4.182000000
H    -6.729000000     0.667000000     3.215000000
