215
-1410.10108
C    -0.753000000    -5.014000000     0.664000000
H     0.258000000    -4.995000000     1.064000000
C    -0.976000000    -4.536000000    -0.620000000
C    -2.249000000    -4.554000000    -1.111000000
H    -2.416000000    -4.110000000    -2.089000000
C     0.136000000    -3.899000000    -1.407000000
O     1.405000000    -4.324000000    -1.004000000
H     0.040000000    -2.829000000    -1.172000000
O    -0.009000000    -4.088000000    -2.858000000
C     0.354000000    -2.994000000    -3.736000000
C    -0.675000000    -2.162000000    -4.148000000
H    -1.697000000    -2.513000000    -4.025000000
C    -0.353000000    -0.898000000    -4.745000000
O    -1.391000000    -0.014000000    -5.046000000
C     0.920000000    -0.453000000    -4.904000000
C     1.185000000     0.898000000    -5.580000000
H     2.151000000     1.015000000    -6.075000000
C     1.115000000     2.102000000    -4.594000000
C     2.351000000     2.572000000    -4.070000000
H     3.318000000     2.248000000    -4.447000000
H     0.443000000     1.044000000    -6.367000000
C     1.925000000    -1.352000000    -4.660000000
H     2.904000000    -0.890000000    -4.756000000
C     1.701000000    -2.623000000    -3.963000000
C     2.946000000    -3.319000000    -3.463000000
H     3.748000000    -3.013000000    -4.139000000
H     2.635000000    -4.354000000    -3.620000000
C     3.196000000    -2.896000000    -1.988000000
C     4.040000000    -1.820000000    -1.713000000
H     4.527000000    -1.367000000    -2.572000000
C     2.439000000    -3.426000000    -0.900000000
C     2.753000000    -3.014000000     0.435000000
H     2.182000000    -3.410000000     1.271000000
C     3.756000000    -2.153000000     0.645000000
O     3.972000000    -1.701000000     1.917000000
C     3.354000000    -0.518000000     2.377000000
C     2.580000000    -0.635000000     3.689000000
C     2.325000000     0.555000000     4.409000000
H     2.372000000     1.531000000     3.934000000
C     2.050000000    -1.827000000     4.243000000
H     2.248000000    -2.701000000     3.628000000
O     4.208000000     0.640000000     2.304000000
H     2.495000000    -0.329000000     1.716000000
C     4.368000000    -1.498000000    -0.425000000
C     5.358000000    -0.396000000    -0.084000000
H     6.126000000    -0.353000000    -0.860000000
H     5.871000000    -0.795000000     0.793000000
C     4.692000000     1.008000000    -0.032000000
C     4.600000000     1.757000000    -1.182000000
H     4.925000000     1.340000000    -2.132000000
C     4.194000000     1.477000000     1.190000000
C     3.561000000     2.703000000     1.246000000
H     3.173000000     3.133000000     2.166000000
C     3.493000000     3.458000000     0.143000000
O     2.621000000     4.595000000     0.076000000
C     1.229000000     4.379000000    -0.201000000
C     0.399000000     5.039000000     0.835000000
C     0.848000000     5.415000000     2.085000000
H     1.873000000     5.294000000     2.426000000
C    -0.981000000     5.051000000     0.574000000
H    -1.445000000     4.619000000    -0.309000000
O     1.033000000     4.901000000    -1.512000000
H     1.060000000     3.295000000    -0.277000000
C     3.942000000     2.993000000    -1.065000000
C     3.719000000     3.825000000    -2.405000000
H     4.569000000     3.713000000    -3.081000000
H     3.732000000     4.843000000    -2.010000000
C     2.339000000     3.474000000    -3.026000000
C     1.077000000     3.972000000    -2.606000000
C    -0.115000000     3.648000000    -3.282000000
H    -1.009000000     4.181000000    -2.970000000
C    -0.102000000     2.653000000    -4.233000000
O    -1.267000000     2.210000000    -4.710000000
C    -1.735000000     0.963000000    -4.118000000
H    -1.181000000     0.861000000    -3.173000000
C    -3.230000000     0.969000000    -3.777000000
C    -4.071000000    -0.156000000    -4.076000000
H    -3.724000000    -1.020000000    -4.637000000
C    -3.871000000     1.942000000    -2.978000000
H    -3.371000000     2.885000000    -2.775000000
C    -5.173000000     1.779000000    -2.504000000
O    -5.671000000     2.775000000    -1.655000000
C    -5.947000000     0.659000000    -2.813000000
H    -6.935000000     0.544000000    -2.375000000
C    -5.361000000    -0.364000000    -3.490000000
O    -6.114000000    -1.521000000    -3.705000000
C    -5.552000000    -2.720000000    -3.382000000
C    -5.350000000    -3.174000000    -2.111000000
H    -5.339000000    -2.545000000    -1.224000000
C    -5.407000000    -3.577000000    -4.495000000
H    -5.575000000    -3.240000000    -5.514000000
C    -5.142000000    -4.965000000    -4.299000000
H    -5.110000000    -5.646000000    -5.146000000
C    -4.957000000    -5.359000000    -2.974000000
H    -4.546000000    -6.346000000    -2.778000000
C    -5.049000000    -4.501000000    -1.936000000
O    -4.603000000    -5.014000000    -0.785000000
C    -3.336000000    -4.918000000    -0.329000000
C    -3.108000000    -5.403000000     0.989000000
H    -3.888000000    -5.718000000     1.677000000
C    -1.834000000    -5.314000000     1.519000000
O    -1.491000000    -5.813000000     2.769000000
C    -0.352000000    -5.489000000     3.589000000
C    -0.358000000    -4.420000000     4.496000000
H    -1.146000000    -3.672000000     4.459000000
C     0.763000000    -6.329000000     3.519000000
H     0.789000000    -7.117000000     2.771000000
C     1.861000000    -6.080000000     4.239000000
H     2.734000000    -6.728000000     4.236000000
C     1.893000000    -4.920000000     5.054000000
H     2.795000000    -4.593000000     5.565000000
C     0.807000000    -4.105000000     5.249000000
O     0.836000000    -3.038000000     6.003000000
C     1.263000000    -1.920000000     5.462000000
C     1.094000000    -0.686000000     6.076000000
H     0.466000000    -0.575000000     6.956000000
C     1.607000000     0.511000000     5.609000000
O     1.150000000     1.688000000     6.176000000
C     1.595000000     2.953000000     5.934000000
C     0.714000000     3.812000000     5.261000000
H    -0.253000000     3.473000000     4.900000000
C     2.899000000     3.353000000     6.326000000
H     3.550000000     2.714000000     6.917000000
C     3.319000000     4.602000000     5.900000000
H     4.325000000     4.983000000     6.060000000
C     2.423000000     5.507000000     5.345000000
H     2.646000000     6.550000000     5.132000000
C     1.130000000     5.118000000     5.004000000
O     0.333000000     6.064000000     4.432000000
C    -0.050000000     5.895000000     3.106000000
C    -1.371000000     5.922000000     2.812000000
H    -2.041000000     6.481000000     3.460000000
C    -1.852000000     5.534000000     1.556000000
O    -3.244000000     5.493000000     1.360000000
C    -4.004000000     4.356000000     1.116000000
C    -3.960000000     3.261000000     2.026000000
H    -3.234000000     3.382000000     2.827000000
C    -4.437000000     2.002000000     1.702000000
H    -4.337000000     1.198000000     2.426000000
C    -5.090000000     1.854000000     0.481000000
H    -5.622000000     0.938000000     0.239000000
C    -5.153000000     2.914000000    -0.436000000
C    -4.596000000     4.207000000    -0.136000000
H    -4.588000000     5.057000000    -0.812000000
C    -1.430000000    -1.420000000     1.749000000
H    -1.105000000    -1.746000000     2.734000000
C    -0.452000000    -1.009000000     0.820000000
H     0.595000000    -1.101000000     1.098000000
C    -0.862000000    -0.581000000    -0.442000000
H    -0.020000000    -0.191000000    -1.110000000
C    -2.186000000    -0.430000000    -0.765000000
H    -2.504000000    -0.183000000    -1.774000000
C    -3.136000000    -0.861000000     0.124000000
H    -4.194000000    -0.843000000    -0.128000000
C    -2.796000000    -1.366000000     1.408000000
C    -3.910000000    -1.971000000     2.160000000
O    -5.007000000    -2.080000000     1.678000000
O    -3.620000000    -2.388000000     3.296000000
O    -6.022000000    -3.738000000     8.349000000
H    -5.609000000    -3.981000000     7.520000000
H    -5.958000000    -4.525000000     8.889000000
O    -7.470000000    -2.804000000     1.430000000
H    -7.725000000    -2.792000000     2.353000000
H    -6.557000000    -2.516000000     1.430000000
O    -9.406000000    -2.389000000    -0.685000000
H    -8.781000000    -2.399000000     0.040000000
H    -9.143000000    -3.124000000    -1.239000000
O    -6.073000000    -1.639000000     5.648000000
H    -5.693000000    -1.063000000     6.311000000
H    -5.411000000    -2.316000000     5.511000000
O    -8.328000000    -0.346000000     7.367000000
H    -7.650000000    -0.074000000     6.749000000
H    -8.289000000    -1.302000000     7.359000000
O    -5.432000000    -4.585000000     3.767000000
H    -4.818000000    -3.872000000     3.593000000
H    -6.296000000    -4.176000000     3.716000000
O    -1.877000000     0.792000000     3.853000000
H    -1.726000000     0.502000000     2.953000000
H    -2.090000000    -0.010000000     4.330000000
O    -4.607000000    -0.273000000     7.269000000
H    -3.808000000    -0.404000000     6.758000000
H    -4.296000000    -0.038000000     8.143000000
O    -7.504000000    -5.549000000     1.254000000
H    -8.367000000    -5.600000000     0.844000000
H    -7.266000000    -4.623000000     1.197000000
O    -2.422000000     2.233000000     6.273000000
H    -2.248000000     1.495000000     6.857000000
H    -2.219000000     1.901000000     5.399000000
O    -6.180000000     2.703000000     4.969000000
H    -6.375000000     1.981000000     4.372000000
H    -6.586000000     3.467000000     4.561000000
O   -10.806000000    -1.532000000     1.913000000
H   -10.050000000    -2.046000000     1.631000000
H   -11.256000000    -2.094000000     2.544000000
O    -2.672000000    -1.413000000     5.619000000
H    -2.015000000    -2.044000000     5.915000000
H    -2.877000000    -1.682000000     4.724000000
O    -6.257000000    -0.425000000     3.345000000
H    -6.210000000    -0.807000000     4.222000000
H    -5.666000000    -0.963000000     2.818000000
O    -7.960000000     1.718000000     2.910000000
H    -7.855000000     1.913000000     1.979000000
H    -7.498000000     0.889000000     3.035000000
O    -4.118000000    -8.355000000     0.732000000
H    -4.982000000    -8.503000000     0.347000000
H    -4.293000000    -7.846000000     1.523000000
O    -8.121000000    -3.208000000     4.062000000
H    -8.115000000    -2.935000000     4.979000000
H    -8.904000000    -3.753000000     3.980000000
O    -4.641000000    -7.600000000     3.339000000
H    -4.187000000    -7.571000000     4.181000000
H    -5.209000000    -6.829000000     3.347000000
O    -4.414000000    -3.995000000     6.217000000
H    -3.731000000    -4.601000000     6.504000000
H    -4.827000000    -4.434000000     5.474000000
