215
-1458.58318
C    -0.615000000    -5.399000000     0.946000000
H     0.362000000    -5.434000000     1.423000000
C    -0.725000000    -5.017000000    -0.405000000
C    -2.016000000    -5.081000000    -0.920000000
H    -2.148000000    -4.613000000    -1.892000000
C     0.445000000    -4.387000000    -1.079000000
O     1.828000000    -4.792000000    -0.752000000
H     0.463000000    -3.301000000    -0.900000000
O     0.237000000    -4.473000000    -2.488000000
C     0.391000000    -3.418000000    -3.384000000
C    -0.784000000    -2.750000000    -3.693000000
H    -1.750000000    -3.024000000    -3.276000000
C    -0.752000000    -1.675000000    -4.573000000
O    -1.871000000    -0.911000000    -4.578000000
C     0.485000000    -1.151000000    -5.022000000
C     0.593000000     0.218000000    -5.673000000
H     1.419000000     0.278000000    -6.384000000
C     0.792000000     1.324000000    -4.606000000
C     2.065000000     1.703000000    -4.164000000
H     2.907000000     1.252000000    -4.683000000
H    -0.293000000     0.334000000    -6.301000000
C     1.656000000    -1.817000000    -4.664000000
H     2.618000000    -1.400000000    -4.951000000
C     1.655000000    -2.852000000    -3.782000000
C     2.954000000    -3.483000000    -3.278000000
H     3.751000000    -3.185000000    -3.963000000
H     2.915000000    -4.574000000    -3.272000000
C     3.269000000    -3.113000000    -1.818000000
C     4.160000000    -2.084000000    -1.648000000
H     4.491000000    -1.594000000    -2.560000000
C     2.786000000    -3.750000000    -0.645000000
C     2.954000000    -3.116000000     0.609000000
H     2.335000000    -3.349000000     1.472000000
C     3.921000000    -2.118000000     0.720000000
O     3.946000000    -1.445000000     1.951000000
C     3.305000000    -0.177000000     2.056000000
C     2.567000000    -0.004000000     3.377000000
C     2.456000000     1.181000000     4.084000000
H     3.016000000     2.022000000     3.683000000
C     1.716000000    -1.065000000     3.730000000
H     1.653000000    -2.009000000     3.195000000
O     4.314000000     0.833000000     2.004000000
H     2.656000000    -0.090000000     1.172000000
C     4.624000000    -1.647000000    -0.402000000
C     5.578000000    -0.510000000    -0.322000000
H     6.283000000    -0.481000000    -1.155000000
H     6.174000000    -0.480000000     0.592000000
C     4.913000000     0.841000000    -0.364000000
C     4.670000000     1.436000000    -1.638000000
H     4.877000000     0.839000000    -2.522000000
C     4.399000000     1.459000000     0.774000000
C     3.822000000     2.732000000     0.723000000
H     3.460000000     3.254000000     1.605000000
C     3.698000000     3.345000000    -0.483000000
O     2.912000000     4.509000000    -0.497000000
C     1.518000000     4.217000000    -0.700000000
C     0.701000000     5.155000000     0.209000000
C     1.359000000     5.652000000     1.392000000
H     2.414000000     5.488000000     1.592000000
C    -0.705000000     5.386000000    -0.011000000
H    -1.322000000     4.970000000    -0.803000000
O     1.180000000     4.485000000    -2.082000000
H     1.236000000     3.208000000    -0.363000000
C     3.985000000     2.652000000    -1.656000000
C     3.590000000     3.287000000    -2.989000000
H     4.334000000     2.925000000    -3.701000000
H     3.667000000     4.376000000    -3.004000000
C     2.181000000     2.775000000    -3.314000000
C     1.053000000     3.349000000    -2.859000000
C    -0.234000000     2.955000000    -3.153000000
H    -1.176000000     3.400000000    -2.842000000
C    -0.375000000     1.917000000    -4.070000000
O    -1.643000000     1.392000000    -4.288000000
C    -1.932000000     0.155000000    -3.614000000
H    -1.154000000     0.068000000    -2.842000000
C    -3.342000000     0.333000000    -3.016000000
C    -4.256000000    -0.718000000    -3.038000000
H    -4.048000000    -1.654000000    -3.550000000
C    -3.800000000     1.496000000    -2.421000000
H    -3.159000000     2.370000000    -2.332000000
C    -5.121000000     1.691000000    -1.994000000
O    -5.469000000     2.859000000    -1.366000000
C    -5.971000000     0.600000000    -1.974000000
H    -6.968000000     0.773000000    -1.578000000
C    -5.543000000    -0.604000000    -2.549000000
O    -6.432000000    -1.732000000    -2.538000000
C    -5.981000000    -3.037000000    -2.650000000
C    -5.452000000    -3.704000000    -1.602000000
H    -5.562000000    -3.222000000    -0.634000000
C    -5.860000000    -3.653000000    -3.910000000
H    -6.322000000    -3.126000000    -4.741000000
C    -5.418000000    -4.946000000    -4.023000000
H    -5.518000000    -5.449000000    -4.982000000
C    -4.976000000    -5.655000000    -2.917000000
H    -4.645000000    -6.685000000    -3.022000000
C    -4.933000000    -4.985000000    -1.705000000
O    -4.384000000    -5.624000000    -0.614000000
C    -3.123000000    -5.496000000    -0.139000000
C    -2.903000000    -5.995000000     1.152000000
H    -3.650000000    -6.294000000     1.883000000
C    -1.678000000    -5.825000000     1.775000000
O    -1.522000000    -6.105000000     3.110000000
C    -0.746000000    -5.384000000     3.961000000
C    -0.854000000    -3.986000000     4.023000000
H    -1.521000000    -3.540000000     3.289000000
C     0.246000000    -5.985000000     4.774000000
H     0.524000000    -7.025000000     4.625000000
C     1.103000000    -5.159000000     5.569000000
H     1.864000000    -5.544000000     6.243000000
C     0.993000000    -3.794000000     5.609000000
H     1.566000000    -3.109000000     6.229000000
C    -0.013000000    -3.203000000     4.814000000
O    -0.219000000    -1.866000000     4.874000000
C     0.733000000    -0.917000000     4.713000000
C     0.578000000     0.343000000     5.334000000
H    -0.272000000     0.450000000     6.003000000
C     1.473000000     1.324000000     5.056000000
O     1.154000000     2.489000000     5.745000000
C     1.769000000     3.694000000     5.403000000
C     1.279000000     4.572000000     4.502000000
H     0.396000000     4.289000000     3.935000000
C     2.983000000     3.896000000     5.957000000
H     3.481000000     3.082000000     6.477000000
C     3.768000000     4.960000000     5.579000000
H     4.745000000     5.112000000     6.032000000
C     3.144000000     6.037000000     4.895000000
H     3.604000000     7.016000000     4.787000000
C     1.911000000     5.829000000     4.267000000
O     1.330000000     6.776000000     3.479000000
C     0.645000000     6.405000000     2.319000000
C    -0.694000000     6.678000000     2.107000000
H    -1.328000000     7.130000000     2.866000000
C    -1.382000000     6.178000000     0.952000000
O    -2.820000000     6.142000000     0.937000000
C    -3.525000000     4.881000000     1.002000000
C    -3.713000000     4.141000000     2.157000000
H    -3.427000000     4.646000000     3.076000000
C    -4.453000000     2.952000000     2.117000000
H    -4.568000000     2.316000000     2.991000000
C    -5.080000000     2.490000000     0.986000000
H    -5.617000000     1.552000000     0.873000000
C    -4.870000000     3.235000000    -0.198000000
C    -4.176000000     4.476000000    -0.233000000
H    -4.237000000     5.143000000    -1.090000000
C    -1.729000000    -0.182000000     2.424000000
H    -1.563000000     0.083000000     3.465000000
C    -0.638000000    -0.037000000     1.570000000
H     0.322000000     0.374000000     1.873000000
C    -0.811000000    -0.352000000     0.227000000
H    -0.093000000    -0.036000000    -0.473000000
C    -2.011000000    -0.936000000    -0.198000000
H    -2.122000000    -1.189000000    -1.250000000
C    -2.975000000    -1.283000000     0.732000000
H    -3.751000000    -1.941000000     0.348000000
C    -2.958000000    -0.769000000     2.009000000
C    -4.114000000    -0.956000000     2.974000000
O    -5.173000000    -1.512000000     2.703000000
O    -4.016000000    -0.430000000     4.066000000
O    -6.364000000    -3.864000000     1.652000000
H    -5.832000000    -4.396000000     2.244000000
H    -6.149000000    -2.961000000     1.884000000
O    -8.346000000     2.827000000     0.067000000
H    -8.145000000     2.112000000     0.671000000
H    -8.391000000     2.408000000    -0.793000000
O    -2.415000000    -4.069000000     7.126000000
H    -2.601000000    -3.171000000     6.850000000
H    -2.336000000    -4.559000000     6.307000000
O    -4.230000000    -0.440000000     8.040000000
H    -4.102000000     0.009000000     8.876000000
H    -4.714000000    -1.234000000     8.266000000
O    -5.405000000    -2.958000000     5.151000000
H    -5.106000000    -2.279000000     4.546000000
H    -6.328000000    -2.752000000     5.304000000
O    -7.319000000    -6.608000000     4.096000000
H    -6.417000000    -6.289000000     4.140000000
H    -7.283000000    -7.346000000     3.488000000
O    -4.690000000     3.849000000     5.832000000
H    -4.830000000     2.902000000     5.857000000
H    -5.509000000     4.203000000     5.484000000
O    -5.069000000     1.210000000     5.753000000
H    -4.572000000     0.749000000     5.077000000
H    -4.934000000     0.690000000     6.545000000
O    -7.447000000    -0.356000000     6.967000000
H    -7.016000000    -0.242000000     6.120000000
H    -8.199000000     0.235000000     6.935000000
O    -8.949000000    -4.271000000     0.704000000
H    -8.067000000    -4.105000000     1.038000000
H    -9.377000000    -4.772000000     1.399000000
O    -9.406000000    -1.520000000     0.571000000
H    -9.431000000    -2.468000000     0.706000000
H   -10.271000000    -1.306000000     0.221000000
O    -2.564000000    -1.267000000     6.286000000
H    -3.293000000    -0.987000000     6.839000000
H    -2.714000000    -0.826000000     5.450000000
O    -7.146000000    -0.174000000     4.003000000
H    -6.544000000     0.521000000     4.269000000
H    -6.577000000    -0.872000000     3.677000000
O    -6.076000000     2.290000000     8.714000000
H    -5.924000000     2.194000000     7.774000000
H    -6.427000000     1.443000000     8.988000000
O    -8.186000000     0.489000000     1.450000000
H    -8.476000000    -0.304000000     0.999000000
H    -7.870000000     0.179000000     2.299000000
O    -0.610000000    -1.017000000     8.059000000
H    -1.298000000    -1.123000000     7.403000000
H    -0.610000000    -1.844000000     8.542000000
O   -10.156000000    -0.388000000     5.012000000
H    -9.376000000    -0.086000000     4.547000000
H   -10.079000000    -1.342000000     5.015000000
O    -4.927000000    -5.467000000     4.351000000
H    -4.182000000    -5.877000000     4.789000000
H    -4.967000000    -4.585000000     4.721000000
O    -7.859000000    -2.871000000     6.279000000
H    -7.601000000    -3.486000000     6.966000000
H    -7.999000000    -2.043000000     6.740000000
