215
-1436.18010
C    -0.810000000    -4.477000000     0.924000000
H     0.134000000    -4.219000000     1.397000000
C    -0.988000000    -4.431000000    -0.454000000
C    -2.341000000    -4.489000000    -0.958000000
H    -2.504000000    -4.317000000    -2.018000000
C     0.188000000    -4.018000000    -1.343000000
O     1.467000000    -4.549000000    -0.871000000
H     0.276000000    -2.921000000    -1.318000000
O    -0.011000000    -4.286000000    -2.783000000
C     0.140000000    -3.267000000    -3.631000000
C    -0.917000000    -2.555000000    -4.153000000
H    -1.935000000    -2.724000000    -3.811000000
C    -0.712000000    -1.333000000    -4.713000000
O    -1.778000000    -0.471000000    -4.789000000
C     0.646000000    -0.831000000    -4.882000000
C     0.879000000     0.554000000    -5.537000000
H     1.779000000     0.526000000    -6.154000000
C     0.846000000     1.686000000    -4.500000000
C     2.105000000     2.153000000    -4.131000000
H     2.970000000     1.615000000    -4.513000000
H     0.083000000     0.792000000    -6.246000000
C     1.724000000    -1.661000000    -4.563000000
H     2.706000000    -1.262000000    -4.806000000
C     1.502000000    -2.842000000    -3.867000000
C     2.692000000    -3.584000000    -3.365000000
H     3.557000000    -3.410000000    -4.008000000
H     2.398000000    -4.634000000    -3.310000000
C     3.145000000    -3.185000000    -1.928000000
C     4.161000000    -2.240000000    -1.822000000
H     4.670000000    -1.819000000    -2.685000000
C     2.560000000    -3.746000000    -0.840000000
C     2.942000000    -3.403000000     0.449000000
H     2.458000000    -3.761000000     1.353000000
C     3.934000000    -2.362000000     0.587000000
O     4.058000000    -1.793000000     1.914000000
C     3.469000000    -0.452000000     2.212000000
C     2.857000000    -0.408000000     3.633000000
C     2.792000000     0.769000000     4.434000000
H     3.288000000     1.671000000     4.085000000
C     2.367000000    -1.596000000     4.188000000
H     2.419000000    -2.469000000     3.542000000
O     4.492000000     0.548000000     2.092000000
H     2.648000000    -0.256000000     1.508000000
C     4.513000000    -1.793000000    -0.536000000
C     5.543000000    -0.733000000    -0.397000000
H     6.240000000    -0.820000000    -1.233000000
H     6.117000000    -1.014000000     0.489000000
C     4.930000000     0.679000000    -0.412000000
C     4.578000000     1.363000000    -1.609000000
H     4.935000000     0.837000000    -2.491000000
C     4.569000000     1.177000000     0.852000000
C     3.993000000     2.440000000     0.902000000
H     3.550000000     2.851000000     1.805000000
C     3.701000000     3.185000000    -0.219000000
O     2.977000000     4.308000000    -0.065000000
C     1.582000000     4.111000000    -0.316000000
C     0.725000000     4.833000000     0.682000000
C     1.144000000     5.172000000     1.990000000
H     2.173000000     5.007000000     2.297000000
C    -0.617000000     4.930000000     0.377000000
H    -0.940000000     4.435000000    -0.535000000
O     1.218000000     4.687000000    -1.582000000
H     1.253000000     3.065000000    -0.234000000
C     3.988000000     2.633000000    -1.496000000
C     3.688000000     3.424000000    -2.784000000
H     4.367000000     3.099000000    -3.576000000
H     3.930000000     4.442000000    -2.472000000
C     2.289000000     3.145000000    -3.204000000
C     1.139000000     3.861000000    -2.740000000
C    -0.174000000     3.416000000    -3.125000000
H    -1.046000000     3.976000000    -2.797000000
C    -0.336000000     2.337000000    -4.023000000
O    -1.558000000     1.908000000    -4.388000000
C    -2.055000000     0.643000000    -3.872000000
H    -1.537000000     0.487000000    -2.914000000
C    -3.538000000     0.768000000    -3.594000000
C    -4.384000000    -0.282000000    -3.865000000
H    -4.107000000    -1.184000000    -4.405000000
C    -4.011000000     1.789000000    -2.879000000
H    -3.379000000     2.588000000    -2.499000000
C    -5.373000000     1.851000000    -2.451000000
O    -5.879000000     2.776000000    -1.553000000
C    -6.278000000     0.842000000    -2.848000000
H    -7.335000000     0.934000000    -2.614000000
C    -5.743000000    -0.266000000    -3.460000000
O    -6.492000000    -1.379000000    -3.769000000
C    -6.023000000    -2.625000000    -3.418000000
C    -5.705000000    -2.978000000    -2.150000000
H    -5.774000000    -2.210000000    -1.384000000
C    -5.907000000    -3.565000000    -4.418000000
H    -6.146000000    -3.326000000    -5.451000000
C    -5.457000000    -4.826000000    -4.198000000
H    -5.260000000    -5.466000000    -5.054000000
C    -5.085000000    -5.133000000    -2.881000000
H    -4.771000000    -6.142000000    -2.623000000
C    -5.129000000    -4.202000000    -1.878000000
O    -4.811000000    -4.562000000    -0.536000000
C    -3.488000000    -4.667000000    -0.164000000
C    -3.228000000    -4.735000000     1.206000000
H    -4.108000000    -4.616000000     1.833000000
C    -1.969000000    -4.624000000     1.738000000
O    -1.941000000    -4.722000000     3.053000000
C    -0.732000000    -4.700000000     3.772000000
C    -0.286000000    -3.592000000     4.531000000
H    -0.869000000    -2.675000000     4.498000000
C     0.005000000    -5.873000000     3.826000000
H    -0.348000000    -6.717000000     3.239000000
C     1.097000000    -6.015000000     4.676000000
H     1.691000000    -6.920000000     4.582000000
C     1.538000000    -4.916000000     5.389000000
H     2.433000000    -4.928000000     6.007000000
C     0.816000000    -3.693000000     5.351000000
O     1.172000000    -2.712000000     6.100000000
C     1.800000000    -1.642000000     5.490000000
C     1.592000000    -0.474000000     6.212000000
H     1.101000000    -0.521000000     7.181000000
C     2.151000000     0.736000000     5.710000000
O     2.055000000     1.864000000     6.501000000
C     2.230000000     3.106000000     5.963000000
C     1.238000000     3.886000000     5.290000000
H     0.264000000     3.484000000     5.027000000
C     3.414000000     3.708000000     6.286000000
H     4.217000000     3.048000000     6.601000000
C     3.745000000     5.046000000     5.865000000
H     4.766000000     5.378000000     6.028000000
C     2.771000000     5.837000000     5.239000000
H     2.888000000     6.897000000     5.029000000
C     1.522000000     5.232000000     4.929000000
O     0.598000000     6.006000000     4.179000000
C     0.213000000     5.675000000     2.933000000
C    -1.113000000     5.857000000     2.530000000
H    -1.843000000     6.316000000     3.192000000
C    -1.537000000     5.448000000     1.253000000
O    -2.880000000     5.608000000     0.961000000
C    -3.653000000     4.556000000     0.789000000
C    -3.971000000     3.864000000     1.908000000
H    -3.454000000     4.125000000     2.828000000
C    -4.780000000     2.770000000     1.874000000
H    -5.016000000     2.120000000     2.713000000
C    -5.383000000     2.424000000     0.654000000
H    -6.064000000     1.577000000     0.653000000
C    -5.123000000     3.153000000    -0.468000000
C    -4.291000000     4.225000000    -0.442000000
H    -3.943000000     4.710000000    -1.351000000
C    -1.470000000    -0.852000000     1.901000000
H    -1.096000000    -0.479000000     2.852000000
C    -0.678000000    -0.774000000     0.711000000
H     0.363000000    -0.485000000     0.831000000
C    -1.264000000    -1.022000000    -0.534000000
H    -0.762000000    -1.006000000    -1.444000000
C    -2.631000000    -1.256000000    -0.609000000
H    -3.100000000    -1.381000000    -1.582000000
C    -3.431000000    -1.298000000     0.546000000
H    -4.475000000    -1.548000000     0.376000000
C    -2.908000000    -1.043000000     1.793000000
C    -3.806000000    -1.123000000     2.962000000
O    -4.947000000    -1.639000000     2.914000000
O    -3.341000000    -0.721000000     4.000000000
O    -3.505000000    -1.552000000     9.603000000
H    -4.003000000    -1.594000000     8.787000000
H    -4.148000000    -1.741000000    10.287000000
O    -5.679000000    -4.151000000     4.151000000
H    -4.798000000    -4.134000000     4.525000000
H    -5.707000000    -3.391000000     3.570000000
O    -7.170000000     4.147000000     3.931000000
H    -7.384000000     3.640000000     3.148000000
H    -7.971000000     4.633000000     4.128000000
O    -7.943000000    -1.268000000    -0.744000000
H    -7.486000000    -1.897000000    -0.185000000
H    -8.662000000    -1.768000000    -1.130000000
O    -4.433000000     1.226000000     5.314000000
H    -4.192000000     0.920000000     6.188000000
H    -4.075000000     0.566000000     4.721000000
O    -9.045000000    -4.387000000     4.582000000
H    -8.099000000    -4.498000000     4.488000000
H    -9.144000000    -3.566000000     5.065000000
O    -3.381000000    -2.644000000     5.725000000
H    -3.339000000    -1.926000000     5.093000000
H    -3.735000000    -2.243000000     6.519000000
O    -8.533000000     1.551000000     2.773000000
H    -8.168000000     0.747000000     3.143000000
H    -9.072000000     1.254000000     2.040000000
O     0.186000000     1.633000000     2.595000000
H    -0.634000000     1.783000000     2.124000000
H    -0.078000000     1.183000000     3.398000000
O    -6.701000000    -2.999000000     0.811000000
H    -6.264000000    -3.813000000     0.561000000
H    -6.189000000    -2.669000000     1.549000000
O    -3.133000000     0.618000000     7.669000000
H    -2.296000000     1.008000000     7.921000000
H    -3.417000000     0.140000000     8.448000000
O    -1.581000000     3.426000000     6.589000000
H    -1.467000000     2.822000000     7.323000000
H    -1.556000000     2.868000000     5.812000000
O    -5.292000000     4.038000000     5.664000000
H    -4.936000000     3.235000000     5.286000000
H    -6.092000000     4.204000000     5.165000000
O    -1.331000000     0.882000000     5.079000000
H    -1.177000000     0.570000000     5.971000000
H    -1.981000000     0.276000000     4.723000000
O    -7.157000000    -0.453000000     4.002000000
H    -6.834000000    -0.780000000     4.842000000
H    -6.463000000    -0.668000000     3.379000000
O    -6.346000000    -6.607000000     4.054000000
H    -6.016000000    -5.711000000     4.125000000
H    -6.489000000    -6.882000000     4.960000000
O    -5.386000000    -1.731000000     7.653000000
H    -6.198000000    -1.230000000     7.573000000
H    -5.670000000    -2.611000000     7.897000000
O    -2.938000000    -5.767000000     6.228000000
H    -2.414000000    -5.990000000     6.997000000
H    -2.704000000    -4.859000000     6.034000000
O    -7.631000000     0.007000000     7.441000000
H    -7.377000000     0.897000000     7.198000000
H    -8.180000000     0.117000000     8.218000000
