215
-1456.38423
C     0.508000000    -5.150000000     0.160000000
H     1.497000000    -4.935000000     0.557000000
C     0.140000000    -4.503000000    -1.027000000
C    -1.209000000    -4.689000000    -1.426000000
H    -1.509000000    -4.311000000    -2.400000000
C     1.124000000    -3.657000000    -1.821000000
O     2.453000000    -3.831000000    -1.301000000
H     0.715000000    -2.645000000    -1.691000000
O     1.096000000    -3.833000000    -3.257000000
C     1.074000000    -2.658000000    -3.926000000
C    -0.096000000    -2.144000000    -4.429000000
H    -1.078000000    -2.592000000    -4.300000000
C    -0.067000000    -0.841000000    -4.866000000
O    -1.347000000    -0.257000000    -5.050000000
C     1.083000000    -0.090000000    -4.980000000
C     0.956000000     1.370000000    -5.502000000
H     1.926000000     1.560000000    -5.965000000
C     0.770000000     2.323000000    -4.366000000
C     1.926000000     2.930000000    -3.790000000
H     2.947000000     2.669000000    -4.056000000
H     0.155000000     1.514000000    -6.230000000
C     2.312000000    -0.604000000    -4.542000000
H     3.225000000    -0.016000000    -4.566000000
C     2.313000000    -1.897000000    -4.088000000
C     3.672000000    -2.398000000    -3.633000000
H     4.557000000    -1.932000000    -4.071000000
H     3.654000000    -3.485000000    -3.734000000
C     3.805000000    -1.991000000    -2.160000000
C     4.525000000    -0.846000000    -1.859000000
H     4.943000000    -0.260000000    -2.673000000
C     3.282000000    -2.740000000    -1.070000000
C     3.423000000    -2.417000000     0.290000000
H     2.907000000    -3.002000000     1.047000000
C     4.120000000    -1.222000000     0.501000000
O     4.132000000    -0.814000000     1.830000000
C     3.361000000     0.218000000     2.220000000
C     2.624000000    -0.177000000     3.578000000
C     2.175000000     0.873000000     4.331000000
H     2.464000000     1.865000000     3.992000000
C     2.202000000    -1.474000000     3.798000000
H     2.566000000    -2.344000000     3.257000000
O     4.236000000     1.398000000     2.314000000
H     2.605000000     0.520000000     1.480000000
C     4.663000000    -0.429000000    -0.547000000
C     5.440000000     0.861000000    -0.165000000
H     6.266000000     1.098000000    -0.840000000
H     5.878000000     0.672000000     0.817000000
C     4.579000000     2.040000000     0.006000000
C     4.226000000     2.792000000    -1.081000000
H     4.743000000     2.569000000    -2.011000000
C     4.070000000     2.314000000     1.325000000
C     3.165000000     3.362000000     1.454000000
H     2.680000000     3.392000000     2.427000000
C     2.861000000     4.161000000     0.345000000
O     1.827000000     5.090000000     0.514000000
C     0.516000000     4.614000000     0.076000000
C    -0.563000000     5.000000000     1.148000000
C    -0.190000000     5.180000000     2.486000000
H     0.858000000     5.274000000     2.759000000
C    -1.934000000     5.007000000     0.835000000
H    -2.233000000     4.641000000    -0.144000000
O     0.159000000     5.020000000    -1.221000000
H     0.660000000     3.524000000     0.040000000
C     3.420000000     3.874000000    -0.894000000
C     2.915000000     4.640000000    -2.080000000
H     3.705000000     4.851000000    -2.804000000
H     2.600000000     5.653000000    -1.820000000
C     1.749000000     3.888000000    -2.750000000
C     0.456000000     4.169000000    -2.277000000
C    -0.656000000     3.562000000    -2.779000000
H    -1.645000000     3.802000000    -2.395000000
C    -0.520000000     2.644000000    -3.794000000
O    -1.685000000     2.047000000    -4.223000000
C    -1.926000000     0.653000000    -4.042000000
H    -1.548000000     0.452000000    -3.029000000
C    -3.380000000     0.348000000    -3.720000000
C    -3.990000000    -0.880000000    -4.043000000
H    -3.563000000    -1.668000000    -4.657000000
C    -4.177000000     1.253000000    -2.950000000
H    -3.727000000     2.173000000    -2.587000000
C    -5.403000000     0.913000000    -2.407000000
O    -6.060000000     1.719000000    -1.490000000
C    -5.882000000    -0.335000000    -2.625000000
H    -6.799000000    -0.619000000    -2.116000000
C    -5.190000000    -1.260000000    -3.459000000
O    -5.845000000    -2.453000000    -3.740000000
C    -5.509000000    -3.722000000    -3.377000000
C    -4.629000000    -4.061000000    -2.349000000
H    -4.258000000    -3.247000000    -1.731000000
C    -5.935000000    -4.759000000    -4.244000000
H    -6.602000000    -4.496000000    -5.061000000
C    -5.469000000    -6.052000000    -4.123000000
H    -5.828000000    -6.849000000    -4.769000000
C    -4.572000000    -6.350000000    -3.112000000
H    -4.099000000    -7.319000000    -2.980000000
C    -4.210000000    -5.390000000    -2.211000000
O    -3.400000000    -5.822000000    -1.070000000
C    -2.102000000    -5.482000000    -0.651000000
C    -1.683000000    -6.100000000     0.490000000
H    -2.415000000    -6.683000000     1.042000000
C    -0.379000000    -5.976000000     0.886000000
O    -0.013000000    -6.568000000     2.072000000
C     0.793000000    -5.925000000     3.015000000
C     0.385000000    -4.711000000     3.555000000
H    -0.549000000    -4.301000000     3.179000000
C     1.998000000    -6.494000000     3.435000000
H     2.462000000    -7.268000000     2.829000000
C     2.801000000    -5.841000000     4.386000000
H     3.756000000    -6.276000000     4.668000000
C     2.410000000    -4.650000000     4.890000000
H     3.000000000    -4.162000000     5.660000000
C     1.203000000    -4.075000000     4.487000000
O     0.784000000    -2.921000000     5.093000000
C     1.334000000    -1.690000000     4.843000000
C     0.883000000    -0.652000000     5.587000000
H     0.164000000    -0.897000000     6.364000000
C     1.363000000     0.635000000     5.442000000
O     0.864000000     1.608000000     6.244000000
C     0.998000000     2.962000000     6.039000000
C     0.089000000     3.686000000     5.357000000
H    -0.746000000     3.100000000     4.979000000
C     2.078000000     3.580000000     6.638000000
H     2.813000000     2.963000000     7.148000000
C     2.259000000     4.949000000     6.570000000
H     3.131000000     5.468000000     6.959000000
C     1.313000000     5.700000000     5.846000000
H     1.475000000     6.771000000     5.755000000
C     0.202000000     5.093000000     5.348000000
O    -0.810000000     5.728000000     4.690000000
C    -1.204000000     5.353000000     3.443000000
C    -2.528000000     5.339000000     3.145000000
H    -3.240000000     5.567000000     3.934000000
C    -2.865000000     5.128000000     1.815000000
O    -4.143000000     4.918000000     1.475000000
C    -4.548000000     3.610000000     1.220000000
C    -4.189000000     2.552000000     2.046000000
H    -3.717000000     2.781000000     2.998000000
C    -4.398000000     1.205000000     1.713000000
H    -4.160000000     0.387000000     2.388000000
C    -5.104000000     0.953000000     0.493000000
H    -5.315000000    -0.075000000     0.211000000
C    -5.580000000     2.050000000    -0.256000000
C    -5.317000000     3.376000000     0.067000000
H    -5.680000000     4.188000000    -0.558000000
C    -1.317000000    -0.167000000     2.598000000
H    -1.353000000     0.145000000     3.639000000
C    -0.633000000     0.725000000     1.735000000
H    -0.047000000     1.562000000     2.105000000
C    -0.697000000     0.441000000     0.361000000
H    -0.347000000     1.146000000    -0.357000000
C    -1.396000000    -0.663000000    -0.107000000
H    -1.510000000    -0.869000000    -1.168000000
C    -2.085000000    -1.503000000     0.741000000
H    -2.738000000    -2.282000000     0.356000000
C    -2.030000000    -1.260000000     2.152000000
C    -3.035000000    -1.907000000     3.130000000
O    -3.510000000    -2.988000000     2.756000000
O    -3.370000000    -1.434000000     4.197000000
O    -2.060000000     1.797000000     7.635000000
H    -1.875000000     1.448000000     6.764000000
H    -1.241000000     1.680000000     8.118000000
O    -1.836000000    -6.463000000     6.076000000
H    -1.970000000    -7.208000000     5.491000000
H    -2.336000000    -5.752000000     5.676000000
O    -5.180000000    -3.332000000     4.869000000
H    -4.628000000    -4.070000000     5.131000000
H    -4.581000000    -2.732000000     4.425000000
O    -7.522000000    -4.529000000    -0.507000000
H    -7.937000000    -4.822000000     0.305000000
H    -6.695000000    -4.139000000    -0.225000000
O    -7.468000000    -0.906000000     1.426000000
H    -7.911000000    -1.163000000     2.235000000
H    -7.235000000     0.012000000     1.562000000
O    -5.881000000    -0.332000000     4.498000000
H    -4.997000000    -0.560000000     4.212000000
H    -6.229000000    -1.141000000     4.873000000
O    -3.167000000     1.048000000     4.917000000
H    -4.096000000     1.110000000     5.136000000
H    -3.060000000     0.160000000     4.576000000
O    -3.845000000    -4.637000000     7.135000000
H    -3.788000000    -4.348000000     8.045000000
H    -4.607000000    -5.216000000     7.114000000
O    -7.353000000     1.390000000     2.789000000
H    -6.484000000     1.653000000     2.485000000
H    -7.181000000     0.820000000     3.539000000
O    -3.811000000    -1.353000000     9.155000000
H    -4.385000000    -1.188000000     8.406000000
H    -2.930000000    -1.375000000     8.781000000
O    -7.878000000    -3.829000000     3.630000000
H    -8.454000000    -3.065000000     3.665000000
H    -7.153000000    -3.609000000     4.215000000
O    -0.933000000    -2.054000000     9.172000000
H    -1.382000000    -2.250000000     8.350000000
H    -0.650000000    -2.908000000     9.500000000
O    -6.045000000    -1.527000000     7.116000000
H    -6.867000000    -1.909000000     7.425000000
H    -5.713000000    -2.157000000     6.477000000
O    -2.306000000    -2.315000000     6.532000000
H    -2.783000000    -3.145000000     6.510000000
H    -2.534000000    -1.886000000     5.707000000
O    -5.427000000    -3.376000000     1.000000000
H    -4.835000000    -3.351000000     1.752000000
H    -5.930000000    -2.564000000     1.065000000
O    -6.911000000     1.011000000     7.082000000
H    -6.208000000     1.476000000     7.537000000
H    -6.572000000     0.123000000     6.963000000
O    -9.041000000    -1.238000000     3.689000000
H    -9.849000000    -1.567000000     3.296000000
H    -9.269000000    -1.071000000     4.603000000
O    -3.099000000    -5.216000000     4.057000000
H    -3.291000000    -4.516000000     3.433000000
H    -2.789000000    -5.941000000     3.514000000
O    -5.041000000    -6.341000000     1.569000000
H    -5.115000000    -5.476000000     1.164000000
H    -5.264000000    -6.195000000     2.488000000
