215
-1438.62811
C     0.698000000    -4.579000000     0.880000000
H     1.562000000    -4.116000000     1.350000000
C     0.308000000    -4.336000000    -0.431000000
C    -0.797000000    -4.979000000    -0.919000000
H    -1.033000000    -4.773000000    -1.960000000
C     1.167000000    -3.429000000    -1.322000000
O     2.552000000    -3.449000000    -0.853000000
H     0.706000000    -2.436000000    -1.221000000
O     1.135000000    -3.874000000    -2.671000000
C     0.906000000    -2.858000000    -3.605000000
C    -0.425000000    -2.520000000    -3.865000000
H    -1.276000000    -3.073000000    -3.477000000
C    -0.724000000    -1.396000000    -4.545000000
O    -2.027000000    -1.087000000    -4.687000000
C     0.234000000    -0.536000000    -4.976000000
C    -0.092000000     0.834000000    -5.637000000
H     0.720000000     1.155000000    -6.293000000
C    -0.265000000     1.913000000    -4.677000000
C     0.789000000     2.729000000    -4.351000000
H     1.754000000     2.646000000    -4.844000000
H    -0.925000000     0.703000000    -6.332000000
C     1.592000000    -0.870000000    -4.708000000
H     2.425000000    -0.250000000    -5.028000000
C     1.975000000    -2.074000000    -4.033000000
C     3.344000000    -2.335000000    -3.593000000
H     4.103000000    -1.975000000    -4.291000000
H     3.544000000    -3.392000000    -3.406000000
C     3.581000000    -1.661000000    -2.251000000
C     4.182000000    -0.422000000    -2.252000000
H     4.615000000    -0.028000000    -3.168000000
C     3.295000000    -2.319000000    -1.045000000
C     3.751000000    -1.740000000     0.184000000
H     3.523000000    -2.294000000     1.092000000
C     4.370000000    -0.538000000     0.188000000
O     4.708000000    -0.071000000     1.444000000
C     3.814000000     0.921000000     1.957000000
C     3.502000000     0.688000000     3.392000000
C     2.956000000     1.745000000     4.116000000
H     2.912000000     2.740000000     3.680000000
C     3.567000000    -0.562000000     3.948000000
H     4.034000000    -1.358000000     3.373000000
O     4.264000000     2.258000000     1.661000000
H     2.823000000     0.791000000     1.498000000
C     4.567000000     0.120000000    -1.048000000
C     5.212000000     1.460000000    -1.130000000
H     5.655000000     1.763000000    -2.081000000
H     5.980000000     1.544000000    -0.358000000
C     4.237000000     2.560000000    -0.745000000
C     3.680000000     3.208000000    -1.886000000
H     4.000000000     2.795000000    -2.839000000
C     3.778000000     2.910000000     0.547000000
C     2.637000000     3.761000000     0.686000000
H     2.100000000     4.018000000     1.595000000
C     2.070000000     4.343000000    -0.443000000
O     0.919000000     5.113000000    -0.292000000
C    -0.404000000     4.546000000    -0.424000000
C    -1.367000000     5.031000000     0.693000000
C    -0.854000000     5.623000000     1.795000000
H     0.201000000     5.882000000     1.788000000
C    -2.647000000     4.561000000     0.638000000
H    -2.952000000     3.923000000    -0.188000000
O    -0.896000000     4.813000000    -1.757000000
H    -0.337000000     3.459000000    -0.265000000
C     2.541000000     4.075000000    -1.708000000
C     1.848000000     4.596000000    -2.989000000
H     2.498000000     4.634000000    -3.866000000
H     1.525000000     5.616000000    -2.771000000
C     0.673000000     3.769000000    -3.375000000
C    -0.606000000     3.873000000    -2.738000000
C    -1.702000000     3.091000000    -3.119000000
H    -2.634000000     3.066000000    -2.560000000
C    -1.510000000     2.087000000    -4.037000000
O    -2.624000000     1.255000000    -4.086000000
C    -2.530000000    -0.133000000    -3.714000000
H    -1.840000000    -0.152000000    -2.857000000
C    -3.847000000    -0.622000000    -3.166000000
C    -4.258000000    -1.943000000    -3.236000000
H    -3.604000000    -2.683000000    -3.689000000
C    -4.641000000     0.245000000    -2.456000000
H    -4.394000000     1.294000000    -2.311000000
C    -5.774000000    -0.226000000    -1.748000000
O    -6.443000000     0.606000000    -0.871000000
C    -6.291000000    -1.492000000    -1.985000000
H    -7.192000000    -1.795000000    -1.458000000
C    -5.487000000    -2.351000000    -2.703000000
O    -5.819000000    -3.679000000    -2.864000000
C    -4.933000000    -4.748000000    -2.862000000
C    -4.137000000    -5.040000000    -1.766000000
H    -4.207000000    -4.401000000    -0.890000000
C    -4.649000000    -5.379000000    -4.058000000
H    -5.278000000    -5.176000000    -4.921000000
C    -3.763000000    -6.444000000    -4.100000000
H    -3.621000000    -6.937000000    -5.058000000
C    -3.079000000    -6.828000000    -2.956000000
H    -2.352000000    -7.636000000    -2.924000000
C    -3.269000000    -6.100000000    -1.785000000
O    -2.569000000    -6.582000000    -0.626000000
C    -1.506000000    -5.851000000    -0.057000000
C    -1.129000000    -6.043000000     1.335000000
H    -1.822000000    -6.600000000     1.960000000
C    -0.018000000    -5.306000000     1.781000000
O     0.320000000    -5.303000000     3.093000000
C     1.562000000    -4.836000000     3.638000000
C     1.614000000    -3.625000000     4.340000000
H     0.774000000    -2.939000000     4.414000000
C     2.643000000    -5.720000000     3.661000000
H     2.555000000    -6.710000000     3.222000000
C     3.863000000    -5.377000000     4.308000000
H     4.693000000    -6.078000000     4.272000000
C     3.965000000    -4.076000000     4.876000000
H     4.799000000    -3.802000000     5.518000000
C     2.848000000    -3.245000000     4.935000000
O     2.968000000    -2.133000000     5.707000000
C     2.917000000    -0.832000000     5.182000000
C     2.221000000     0.223000000     5.814000000
H     1.531000000     0.041000000     6.634000000
C     2.199000000     1.477000000     5.263000000
O     1.334000000     2.352000000     5.836000000
C     1.399000000     3.723000000     5.617000000
C     0.395000000     4.238000000     4.783000000
H    -0.291000000     3.586000000     4.249000000
C     2.407000000     4.523000000     6.116000000
H     3.242000000     4.177000000     6.721000000
C     2.330000000     5.837000000     5.892000000
H     3.058000000     6.543000000     6.284000000
C     1.282000000     6.423000000     5.169000000
H     1.247000000     7.509000000     5.209000000
C     0.272000000     5.623000000     4.685000000
O    -0.901000000     6.212000000     4.083000000
C    -1.562000000     5.613000000     2.997000000
C    -2.833000000     5.167000000     3.020000000
H    -3.396000000     5.102000000     3.948000000
C    -3.413000000     4.601000000     1.819000000
O    -4.647000000     4.121000000     1.794000000
C    -5.004000000     2.781000000     1.675000000
C    -4.451000000     1.819000000     2.558000000
H    -4.008000000     2.008000000     3.533000000
C    -4.576000000     0.410000000     2.273000000
H    -4.160000000    -0.343000000     2.937000000
C    -5.235000000     0.063000000     1.092000000
H    -5.302000000    -0.994000000     0.846000000
C    -5.843000000     1.017000000     0.282000000
C    -5.658000000     2.404000000     0.514000000
H    -6.103000000     3.146000000    -0.143000000
C    -0.463000000    -0.360000000     2.689000000
H    -0.095000000     0.056000000     3.623000000
C     0.101000000     0.162000000     1.462000000
H     0.876000000     0.924000000     1.439000000
C    -0.399000000    -0.356000000     0.242000000
H    -0.072000000     0.045000000    -0.720000000
C    -1.481000000    -1.251000000     0.218000000
H    -1.969000000    -1.489000000    -0.723000000
C    -1.985000000    -1.785000000     1.412000000
H    -2.778000000    -2.525000000     1.343000000
C    -1.476000000    -1.316000000     2.607000000
C    -1.936000000    -1.963000000     3.877000000
O    -2.769000000    -2.873000000     3.861000000
O    -1.516000000    -1.574000000     4.943000000
O    -4.586000000    -6.577000000     5.640000000
H    -3.836000000    -6.043000000     5.377000000
H    -4.666000000    -6.431000000     6.582000000
O    -0.646000000    -5.247000000     8.485000000
H    -1.139000000    -5.969000000     8.095000000
H     0.253000000    -5.381000000     8.184000000
O    -6.582000000    -4.614000000     5.512000000
H    -5.874000000    -4.019000000     5.266000000
H    -6.136000000    -5.402000000     5.823000000
O    -7.617000000    -3.471000000     2.608000000
H    -8.248000000    -4.141000000     2.345000000
H    -6.779000000    -3.932000000     2.643000000
O    -6.983000000     0.948000000     6.197000000
H    -6.049000000     0.993000000     6.402000000
H    -7.068000000     0.178000000     5.635000000
O    -7.087000000    -1.171000000     3.769000000
H    -6.236000000    -1.327000000     4.178000000
H    -7.334000000    -2.018000000     3.398000000
O    -0.892000000    -0.613000000     7.316000000
H    -1.191000000     0.295000000     7.281000000
H    -1.045000000    -0.949000000     6.432000000
O    -1.854000000    -3.587000000    10.433000000
H    -2.760000000    -3.884000000    10.516000000
H    -1.657000000    -3.680000000     9.501000000
O    -5.398000000    -2.030000000     8.616000000
H    -5.010000000    -1.157000000     8.669000000
H    -4.728000000    -2.565000000     8.190000000
O    -3.890000000     0.521000000     6.400000000
H    -3.422000000     0.832000000     7.175000000
H    -3.244000000     0.571000000     5.695000000
O     0.270000000    -1.314000000     9.723000000
H    -0.145000000    -0.964000000     8.935000000
H     1.144000000    -1.579000000     9.436000000
O    -4.982000000    -2.152000000     5.168000000
H    -4.253000000    -2.595000000     4.734000000
H    -4.570000000    -1.456000000     5.679000000
O     2.335000000    -2.603000000     8.615000000
H     2.191000000    -3.547000000     8.683000000
H     2.618000000    -2.469000000     7.710000000
O    -2.431000000    -3.027000000     7.057000000
H    -1.507000000    -2.988000000     7.303000000
H    -2.521000000    -2.380000000     6.358000000
O    -4.842000000    -4.228000000     2.734000000
H    -4.611000000    -5.156000000     2.689000000
H    -4.109000000    -3.821000000     3.197000000
O    -1.558000000     2.145000000     7.231000000
H    -1.854000000     3.017000000     6.970000000
H    -1.936000000     2.014000000     8.100000000
O    -2.412000000    -5.402000000     4.608000000
H    -1.515000000    -5.704000000     4.463000000
H    -2.364000000    -4.452000000     4.503000000
O    -6.272000000    -5.768000000     0.472000000
H    -5.817000000    -5.018000000     0.853000000
H    -7.105000000    -5.412000000     0.162000000
O    -4.021000000    -5.616000000     8.142000000
H    -3.101000000    -5.879000000     8.168000000
H    -4.271000000    -5.531000000     9.062000000
