215
-1453.03089
C     1.535000000    -4.997000000     1.117000000
H     2.592000000    -4.775000000     1.240000000
C     0.679000000    -4.634000000     0.080000000
C    -0.635000000    -4.901000000     0.134000000
H    -1.243000000    -4.381000000    -0.603000000
C     1.220000000    -3.821000000    -1.129000000
O     2.662000000    -3.759000000    -1.039000000
H     0.778000000    -2.814000000    -1.132000000
O     0.870000000    -4.540000000    -2.380000000
C     0.428000000    -3.606000000    -3.309000000
C    -0.937000000    -3.275000000    -3.379000000
H    -1.618000000    -4.024000000    -2.984000000
C    -1.414000000    -2.205000000    -4.123000000
O    -2.762000000    -1.960000000    -4.029000000
C    -0.494000000    -1.387000000    -4.724000000
C    -0.861000000    -0.171000000    -5.546000000
H    -0.135000000    -0.007000000    -6.345000000
C    -0.953000000     1.048000000    -4.685000000
C     0.064000000     2.011000000    -4.753000000
H     0.950000000     1.841000000    -5.360000000
H    -1.864000000    -0.268000000    -5.968000000
C     0.901000000    -1.610000000    -4.673000000
H     1.619000000    -0.904000000    -5.080000000
C     1.367000000    -2.767000000    -3.930000000
C     2.908000000    -2.887000000    -3.865000000
H     3.306000000    -2.573000000    -4.832000000
H     3.169000000    -3.937000000    -3.717000000
C     3.478000000    -2.150000000    -2.650000000
C     4.155000000    -1.016000000    -2.965000000
H     4.336000000    -0.698000000    -3.989000000
C     3.225000000    -2.556000000    -1.324000000
C     3.685000000    -1.728000000    -0.286000000
H     3.425000000    -1.928000000     0.750000000
C     4.332000000    -0.538000000    -0.590000000
O     4.704000000     0.294000000     0.437000000
C     3.739000000     1.295000000     0.856000000
C     3.418000000     1.330000000     2.330000000
C     3.436000000     2.483000000     3.145000000
H     3.751000000     3.446000000     2.753000000
C     3.107000000     0.146000000     3.009000000
H     2.981000000    -0.773000000     2.442000000
O     4.214000000     2.546000000     0.392000000
H     2.828000000     1.238000000     0.243000000
C     4.514000000    -0.102000000    -1.946000000
C     4.956000000     1.367000000    -2.262000000
H     5.162000000     1.341000000    -3.334000000
H     5.798000000     1.587000000    -1.603000000
C     3.950000000     2.482000000    -2.101000000
C     3.294000000     2.986000000    -3.207000000
H     3.483000000     2.646000000    -4.222000000
C     3.709000000     2.989000000    -0.769000000
C     2.743000000     3.990000000    -0.572000000
H     2.534000000     4.406000000     0.411000000
C     1.947000000     4.360000000    -1.650000000
O     0.891000000     5.139000000    -1.318000000
C    -0.396000000     4.414000000    -1.144000000
C    -1.087000000     4.808000000     0.115000000
C    -0.467000000     5.437000000     1.186000000
H     0.572000000     5.756000000     1.153000000
C    -2.476000000     4.523000000     0.236000000
H    -3.106000000     3.975000000    -0.461000000
O    -1.133000000     4.540000000    -2.358000000
H    -0.205000000     3.345000000    -0.969000000
C     2.201000000     3.864000000    -2.931000000
C     1.142000000     4.128000000    -4.057000000
H     1.541000000     4.200000000    -5.071000000
H     0.854000000     5.159000000    -3.842000000
C    -0.054000000     3.189000000    -4.012000000
C    -1.123000000     3.388000000    -3.157000000
C    -2.077000000     2.370000000    -2.985000000
H    -2.883000000     2.403000000    -2.256000000
C    -2.041000000     1.261000000    -3.837000000
O    -3.116000000     0.375000000    -3.739000000
C    -2.991000000    -0.891000000    -3.044000000
H    -2.144000000    -0.886000000    -2.343000000
C    -4.266000000    -1.192000000    -2.212000000
C    -4.592000000    -2.474000000    -1.913000000
H    -4.044000000    -3.302000000    -2.355000000
C    -4.980000000    -0.140000000    -1.581000000
H    -4.690000000     0.906000000    -1.647000000
C    -6.011000000    -0.468000000    -0.691000000
O    -6.638000000     0.551000000    -0.039000000
C    -6.416000000    -1.795000000    -0.505000000
H    -7.279000000    -2.055000000     0.103000000
C    -5.671000000    -2.782000000    -1.085000000
O    -6.126000000    -4.091000000    -0.989000000
C    -5.235000000    -5.179000000    -0.791000000
C    -4.206000000    -4.981000000     0.088000000
H    -4.189000000    -4.076000000     0.690000000
C    -5.286000000    -6.333000000    -1.567000000
H    -6.164000000    -6.542000000    -2.172000000
C    -4.243000000    -7.281000000    -1.449000000
H    -4.260000000    -8.202000000    -2.025000000
C    -3.264000000    -7.104000000    -0.569000000
H    -2.477000000    -7.853000000    -0.551000000
C    -3.272000000    -5.961000000     0.251000000
O    -2.442000000    -5.832000000     1.336000000
C    -1.137000000    -5.597000000     1.229000000
C    -0.338000000    -5.866000000     2.325000000
H    -0.693000000    -6.399000000     3.203000000
C     1.028000000    -5.619000000     2.255000000
O     1.709000000    -5.694000000     3.407000000
C     2.527000000    -4.698000000     3.942000000
C     2.031000000    -3.402000000     4.198000000
H     1.002000000    -3.158000000     3.946000000
C     3.853000000    -5.005000000     4.168000000
H     4.271000000    -5.980000000     3.928000000
C     4.698000000    -3.986000000     4.722000000
H     5.769000000    -4.159000000     4.789000000
C     4.153000000    -2.744000000     5.028000000
H     4.792000000    -1.969000000     5.442000000
C     2.821000000    -2.417000000     4.756000000
O     2.362000000    -1.156000000     5.049000000
C     2.807000000     0.011000000     4.364000000
C     2.819000000     1.224000000     5.083000000
H     2.539000000     1.198000000     6.133000000
C     3.133000000     2.438000000     4.481000000
O     3.071000000     3.589000000     5.254000000
C     2.633000000     4.760000000     4.689000000
C     1.349000000     4.854000000     4.172000000
H     0.774000000     3.935000000     4.090000000
C     3.420000000     5.904000000     4.739000000
H     4.468000000     5.770000000     4.994000000
C     3.016000000     7.119000000     4.196000000
H     3.652000000     8.000000000     4.190000000
C     1.673000000     7.235000000     3.801000000
H     1.247000000     8.195000000     3.521000000
C     0.824000000     6.110000000     3.825000000
O    -0.513000000     6.268000000     3.448000000
C    -1.166000000     5.608000000     2.434000000
C    -2.559000000     5.445000000     2.502000000
H    -3.109000000     5.616000000     3.423000000
C    -3.119000000     4.819000000     1.465000000
O    -4.483000000     4.496000000     1.591000000
C    -4.764000000     3.146000000     1.781000000
C    -4.429000000     2.479000000     2.985000000
H    -4.007000000     2.974000000     3.856000000
C    -4.671000000     1.096000000     3.101000000
H    -4.326000000     0.500000000     3.942000000
C    -5.357000000     0.441000000     2.001000000
H    -5.507000000    -0.636000000     1.987000000
C    -5.858000000     1.193000000     0.947000000
C    -5.581000000     2.554000000     0.826000000
H    -5.973000000     3.068000000    -0.047000000
C    -0.511000000     0.071000000     2.510000000
H    -0.181000000     0.720000000     3.317000000
C    -0.017000000     0.345000000     1.195000000
H     0.649000000     1.192000000     1.055000000
C    -0.351000000    -0.553000000     0.190000000
H    -0.051000000    -0.291000000    -0.780000000
C    -1.218000000    -1.629000000     0.454000000
H    -1.505000000    -2.254000000    -0.387000000
C    -1.690000000    -1.822000000     1.751000000
H    -2.260000000    -2.710000000     2.012000000
C    -1.421000000    -0.916000000     2.748000000
C    -1.778000000    -1.255000000     4.158000000
O    -2.430000000    -2.258000000     4.403000000
O    -1.240000000    -0.796000000     5.201000000
O     1.427000000    -4.609000000     8.232000000
H     1.077000000    -4.079000000     7.516000000
H     1.453000000    -5.499000000     7.880000000
O    -7.507000000     1.165000000     5.109000000
H    -7.706000000     0.418000000     5.674000000
H    -6.565000000     1.302000000     5.216000000
O    -1.631000000    -5.730000000     7.944000000
H    -1.401000000    -4.894000000     7.540000000
H    -0.845000000    -6.268000000     7.849000000
O    -5.179000000    -2.582000000     4.568000000
H    -5.142000000    -3.522000000     4.391000000
H    -4.265000000    -2.325000000     4.689000000
O     0.473000000    -0.150000000     8.024000000
H     0.131000000    -0.616000000     7.261000000
H    -0.142000000     0.571000000     8.160000000
O     3.041000000    -1.787000000     8.066000000
H     2.446000000    -2.400000000     8.497000000
H     2.506000000    -1.010000000     7.901000000
O    -0.041000000    -3.331000000     6.568000000
H    -0.896000000    -3.641000000     6.271000000
H    -0.023000000    -2.406000000     6.323000000
O    -5.116000000    -5.198000000     3.566000000
H    -5.044000000    -6.140000000     3.717000000
H    -6.057000000    -5.040000000     3.482000000
O    -2.945000000    -1.686000000     9.553000000
H    -2.369000000    -0.943000000     9.736000000
H    -3.227000000    -1.554000000     8.648000000
O    -6.169000000    -1.156000000     8.235000000
H    -6.965000000    -0.664000000     8.436000000
H    -6.047000000    -1.733000000     8.989000000
O    -4.364000000    -4.029000000     7.805000000
H    -3.634000000    -4.530000000     7.440000000
H    -4.331000000    -3.190000000     7.346000000
O    -2.571000000     1.347000000     6.033000000
H    -1.888000000     2.005000000     6.162000000
H    -2.106000000     0.582000000     5.694000000
O    -7.450000000    -1.533000000     5.941000000
H    -6.946000000    -1.490000000     6.754000000
H    -6.791000000    -1.661000000     5.258000000
O    -0.908000000     3.496000000     6.229000000
H    -1.337000000     4.305000000     5.950000000
H    -0.390000000     3.750000000     6.992000000
O     1.686000000    -0.216000000    10.291000000
H     1.304000000     0.238000000     9.540000000
H     1.176000000    -1.022000000    10.368000000
O    -5.088000000     0.713000000     6.529000000
H    -4.217000000     1.080000000     6.379000000
H    -4.955000000     0.049000000     7.205000000
O    -2.880000000    -4.610000000     5.457000000
H    -2.631000000    -3.751000000     5.117000000
H    -3.654000000    -4.854000000     4.949000000
O    -1.658000000    -4.072000000    10.017000000
H    -2.262000000    -3.363000000     9.796000000
H    -1.862000000    -4.764000000     9.388000000
O    -3.281000000    -1.538000000     6.942000000
H    -2.583000000    -1.487000000     6.289000000
H    -4.087000000    -1.596000000     6.428000000
