215
-1424.73226
C     1.386000000    -4.228000000     1.244000000
H     2.202000000    -3.549000000     1.477000000
C     0.895000000    -4.347000000    -0.083000000
C    -0.200000000    -5.156000000    -0.302000000
H    -0.538000000    -5.290000000    -1.326000000
C     1.460000000    -3.643000000    -1.255000000
O     2.943000000    -3.600000000    -1.264000000
H     1.070000000    -2.617000000    -1.182000000
O     1.030000000    -4.071000000    -2.527000000
C     0.545000000    -3.116000000    -3.464000000
C    -0.841000000    -2.924000000    -3.667000000
H    -1.553000000    -3.497000000    -3.078000000
C    -1.297000000    -1.754000000    -4.296000000
O    -2.615000000    -1.362000000    -4.186000000
C    -0.410000000    -0.866000000    -4.794000000
C    -0.912000000     0.342000000    -5.504000000
H    -0.226000000     0.744000000    -6.253000000
C    -1.198000000     1.484000000    -4.543000000
C    -0.225000000     2.478000000    -4.493000000
H     0.631000000     2.395000000    -5.158000000
H    -1.804000000     0.022000000    -6.045000000
C     0.950000000    -0.997000000    -4.672000000
H     1.684000000    -0.368000000    -5.167000000
C     1.434000000    -2.179000000    -4.053000000
C     2.869000000    -2.369000000    -4.071000000
H     3.293000000    -2.019000000    -5.014000000
H     3.060000000    -3.444000000    -4.084000000
C     3.514000000    -1.770000000    -2.831000000
C     4.108000000    -0.515000000    -2.989000000
H     4.043000000     0.000000000    -3.944000000
C     3.573000000    -2.381000000    -1.589000000
C     4.075000000    -1.719000000    -0.498000000
H     4.015000000    -2.184000000     0.482000000
C     4.531000000    -0.427000000    -0.633000000
O     4.785000000     0.231000000     0.565000000
C     3.827000000     1.205000000     1.060000000
C     3.646000000     1.099000000     2.568000000
C     2.894000000     2.041000000     3.306000000
H     2.402000000     2.857000000     2.783000000
C     4.194000000     0.021000000     3.280000000
H     4.746000000    -0.698000000     2.680000000
O     4.301000000     2.528000000     0.622000000
H     2.845000000     0.963000000     0.629000000
C     4.586000000     0.191000000    -1.873000000
C     4.919000000     1.662000000    -2.031000000
H     5.289000000     1.826000000    -3.045000000
H     5.753000000     1.829000000    -1.346000000
C     3.811000000     2.698000000    -1.722000000
C     2.902000000     3.153000000    -2.701000000
H     3.010000000     2.802000000    -3.724000000
C     3.618000000     3.114000000    -0.418000000
C     2.553000000     3.971000000    -0.129000000
H     2.317000000     4.310000000     0.876000000
C     1.702000000     4.350000000    -1.094000000
O     0.600000000     5.056000000    -0.660000000
C    -0.687000000     4.451000000    -0.683000000
C    -1.426000000     4.827000000     0.602000000
C    -0.898000000     5.586000000     1.652000000
H     0.099000000     6.006000000     1.550000000
C    -2.760000000     4.297000000     0.687000000
H    -3.172000000     3.617000000    -0.054000000
O    -1.471000000     4.638000000    -1.830000000
H    -0.391000000     3.393000000    -0.619000000
C     1.844000000     3.982000000    -2.401000000
C     0.897000000     4.481000000    -3.500000000
H     1.417000000     4.592000000    -4.454000000
H     0.495000000     5.460000000    -3.232000000
C    -0.280000000     3.494000000    -3.575000000
C    -1.403000000     3.593000000    -2.723000000
C    -2.504000000     2.717000000    -2.909000000
H    -3.354000000     2.849000000    -2.244000000
C    -2.332000000     1.639000000    -3.754000000
O    -3.305000000     0.692000000    -3.640000000
C    -2.989000000    -0.516000000    -3.072000000
H    -2.135000000    -0.382000000    -2.392000000
C    -4.179000000    -1.095000000    -2.363000000
C    -4.400000000    -2.422000000    -2.353000000
H    -3.619000000    -3.104000000    -2.681000000
C    -5.038000000    -0.191000000    -1.622000000
H    -4.701000000     0.841000000    -1.574000000
C    -6.067000000    -0.761000000    -0.923000000
O    -6.721000000    -0.028000000     0.061000000
C    -6.467000000    -2.147000000    -1.088000000
H    -7.309000000    -2.512000000    -0.505000000
C    -5.524000000    -2.956000000    -1.757000000
O    -5.727000000    -4.287000000    -1.653000000
C    -4.745000000    -5.205000000    -1.718000000
C    -3.990000000    -5.404000000    -0.503000000
H    -4.304000000    -4.799000000     0.344000000
C    -4.470000000    -5.950000000    -2.878000000
H    -4.998000000    -5.644000000    -3.778000000
C    -3.423000000    -6.797000000    -2.944000000
H    -3.226000000    -7.409000000    -3.820000000
C    -2.620000000    -6.957000000    -1.799000000
H    -1.686000000    -7.508000000    -1.867000000
C    -2.932000000    -6.307000000    -0.573000000
O    -2.015000000    -6.497000000     0.524000000
C    -0.913000000    -5.737000000     0.760000000
C    -0.475000000    -5.525000000     2.061000000
H    -1.027000000    -5.873000000     2.930000000
C     0.684000000    -4.790000000     2.299000000
O     0.964000000    -4.485000000     3.619000000
C     2.257000000    -4.231000000     4.041000000
C     2.661000000    -2.898000000     4.249000000
H     1.866000000    -2.197000000     4.009000000
C     3.132000000    -5.253000000     4.356000000
H     2.688000000    -6.208000000     4.089000000
C     4.384000000    -4.983000000     4.993000000
H     5.089000000    -5.764000000     5.265000000
C     4.698000000    -3.687000000     5.318000000
H     5.669000000    -3.545000000     5.787000000
C     3.865000000    -2.665000000     4.904000000
O     4.178000000    -1.420000000     5.300000000
C     3.839000000    -0.212000000     4.629000000
C     3.199000000     0.787000000     5.328000000
H     2.927000000     0.545000000     6.352000000
C     2.829000000     1.993000000     4.685000000
O     2.136000000     2.965000000     5.386000000
C     1.829000000     4.221000000     4.839000000
C     0.504000000     4.640000000     4.554000000
H    -0.274000000     3.887000000     4.650000000
C     2.855000000     5.202000000     4.757000000
H     3.898000000     4.900000000     4.719000000
C     2.504000000     6.534000000     4.434000000
H     3.295000000     7.280000000     4.442000000
C     1.199000000     6.930000000     4.281000000
H     0.970000000     7.932000000     3.925000000
C     0.213000000     5.976000000     4.272000000
O    -1.103000000     6.307000000     3.900000000
C    -1.659000000     5.655000000     2.888000000
C    -2.982000000     5.196000000     2.932000000
H    -3.634000000     5.298000000     3.796000000
C    -3.474000000     4.514000000     1.832000000
O    -4.708000000     3.925000000     1.950000000
C    -4.859000000     2.611000000     1.917000000
C    -4.069000000     1.754000000     2.691000000
H    -3.265000000     2.145000000     3.310000000
C    -4.109000000     0.332000000     2.632000000
H    -3.464000000    -0.271000000     3.265000000
C    -5.014000000    -0.239000000     1.754000000
H    -4.883000000    -1.304000000     1.580000000
C    -5.924000000     0.590000000     1.029000000
C    -5.779000000     2.009000000     1.066000000
H    -6.406000000     2.625000000     0.427000000
C    -0.037000000     1.009000000     2.046000000
H     0.097000000     1.842000000     2.732000000
C     0.290000000     0.998000000     0.741000000
H     0.919000000     1.827000000     0.427000000
C     0.105000000    -0.109000000     0.001000000
H     0.519000000    -0.116000000    -1.058000000
C    -0.638000000    -1.144000000     0.553000000
H    -0.906000000    -1.946000000    -0.130000000
C    -1.053000000    -1.101000000     1.866000000
H    -1.777000000    -1.772000000     2.321000000
C    -0.744000000    -0.039000000     2.699000000
C    -1.030000000    -0.145000000     4.171000000
O    -1.420000000    -1.195000000     4.616000000
O    -1.089000000     0.809000000     4.881000000
O     4.424000000    -1.065000000     8.264000000
H     3.914000000    -1.545000000     7.611000000
H     5.302000000    -1.006000000     7.886000000
O    -6.065000000     0.426000000     4.696000000
H    -5.332000000     0.373000000     4.082000000
H    -6.148000000     1.360000000     4.890000000
O    -0.479000000    -1.157000000    10.643000000
H     0.446000000    -1.367000000    10.514000000
H    -0.529000000    -0.209000000    10.519000000
O    -1.129000000    -5.510000000     6.971000000
H    -2.059000000    -5.428000000     7.181000000
H    -0.877000000    -4.643000000     6.656000000
O    -5.162000000     5.321000000     6.099000000
H    -4.285000000     4.979000000     6.271000000
H    -5.205000000     6.133000000     6.604000000
O    -4.997000000    -4.810000000     5.144000000
H    -4.865000000    -5.068000000     6.056000000
H    -5.152000000    -3.867000000     5.182000000
O    -0.199000000     0.603000000     7.266000000
H    -0.318000000     0.607000000     6.316000000
H    -1.087000000     0.538000000     7.618000000
O     1.297000000    -1.726000000     7.871000000
H     1.018000000    -2.348000000     7.199000000
H     0.750000000    -0.954000000     7.725000000
O    -2.016000000     2.136000000     9.143000000
H    -2.732000000     2.766000000     9.224000000
H    -1.349000000     2.597000000     8.634000000
O    -2.385000000     4.607000000     6.380000000
H    -2.364000000     5.563000000     6.423000000
H    -1.614000000     4.328000000     6.874000000
O    -6.139000000    -1.839000000     8.723000000
H    -6.808000000    -1.189000000     8.932000000
H    -5.309000000    -1.382000000     8.859000000
O    -2.807000000    -1.279000000     6.828000000
H    -3.330000000    -0.494000000     6.665000000
H    -2.376000000    -1.459000000     5.992000000
O    -5.805000000    -2.426000000     5.716000000
H    -5.775000000    -1.476000000     5.607000000
H    -6.208000000    -2.557000000     6.574000000
O    -3.369000000     1.708000000     6.093000000
H    -2.510000000     1.413000000     5.790000000
H    -3.296000000     2.662000000     6.125000000
O    -0.335000000     3.694000000     7.675000000
H     0.298000000     4.408000000     7.739000000
H     0.191000000     2.926000000     7.449000000
O    -5.762000000     1.101000000     7.947000000
H    -5.669000000     1.448000000     8.835000000
H    -4.891000000     1.198000000     7.560000000
O    -0.147000000    -3.218000000     5.834000000
H    -0.731000000    -2.547000000     5.481000000
H     0.283000000    -3.590000000     5.064000000
O    -3.936000000    -0.087000000    10.034000000
H    -4.422000000     0.460000000    10.650000000
H    -3.224000000     0.473000000     9.725000000
O    -2.211000000    -2.944000000     8.657000000
H    -1.477000000    -2.715000000     9.227000000
H    -2.155000000    -2.323000000     7.931000000
