215
-1444.67948
C     1.917000000    -4.381000000     1.390000000
H     2.966000000    -4.098000000     1.389000000
C     1.137000000    -4.206000000     0.225000000
C    -0.211000000    -4.691000000     0.181000000
H    -0.787000000    -4.624000000    -0.738000000
C     1.590000000    -3.374000000    -0.893000000
O     3.007000000    -3.150000000    -0.666000000
H     1.186000000    -2.356000000    -0.793000000
O     1.453000000    -4.039000000    -2.166000000
C     0.880000000    -3.461000000    -3.193000000
C    -0.514000000    -3.413000000    -3.334000000
H    -1.185000000    -4.055000000    -2.769000000
C    -1.067000000    -2.477000000    -4.168000000
O    -2.450000000    -2.275000000    -4.107000000
C    -0.307000000    -1.587000000    -4.914000000
C    -0.885000000    -0.411000000    -5.703000000
H    -0.140000000    -0.237000000    -6.482000000
C    -1.106000000     0.846000000    -4.832000000
C    -0.201000000     1.963000000    -4.872000000
H     0.525000000     1.863000000    -5.675000000
H    -1.807000000    -0.601000000    -6.255000000
C     1.076000000    -1.709000000    -4.848000000
H     1.651000000    -0.951000000    -5.373000000
C     1.625000000    -2.551000000    -3.911000000
C     3.128000000    -2.451000000    -3.622000000
H     3.525000000    -2.114000000    -4.582000000
H     3.435000000    -3.478000000    -3.414000000
C     3.554000000    -1.520000000    -2.460000000
C     3.990000000    -0.262000000    -2.711000000
H     3.935000000     0.051000000    -3.751000000
C     3.574000000    -1.964000000    -1.125000000
C     3.969000000    -1.104000000    -0.112000000
H     3.960000000    -1.465000000     0.914000000
C     4.466000000     0.203000000    -0.373000000
O     4.776000000     1.076000000     0.686000000
C     3.718000000     1.985000000     1.082000000
C     3.600000000     2.015000000     2.620000000
C     3.426000000     3.182000000     3.364000000
H     3.477000000     4.147000000     2.866000000
C     3.670000000     0.791000000     3.255000000
H     3.876000000    -0.140000000     2.733000000
O     3.907000000     3.253000000     0.566000000
H     2.754000000     1.547000000     0.782000000
C     4.415000000     0.589000000    -1.671000000
C     4.742000000     2.005000000    -1.977000000
H     5.004000000     1.999000000    -3.037000000
H     5.590000000     2.362000000    -1.389000000
C     3.528000000     2.894000000    -1.786000000
C     2.791000000     3.238000000    -2.970000000
H     3.002000000     2.610000000    -3.832000000
C     3.284000000     3.537000000    -0.590000000
C     2.184000000     4.391000000    -0.484000000
H     1.898000000     4.729000000     0.509000000
C     1.330000000     4.485000000    -1.503000000
O     0.095000000     4.968000000    -1.044000000
C    -0.945000000     3.980000000    -0.931000000
C    -1.721000000     4.225000000     0.337000000
C    -1.080000000     4.917000000     1.372000000
H    -0.153000000     5.448000000     1.169000000
C    -2.940000000     3.651000000     0.518000000
H    -3.400000000     3.084000000    -0.286000000
O    -1.737000000     3.952000000    -2.166000000
H    -0.443000000     3.002000000    -0.889000000
C     1.643000000     3.957000000    -2.763000000
C     0.621000000     4.163000000    -3.885000000
H     1.065000000     4.278000000    -4.876000000
H     0.021000000     5.035000000    -3.613000000
C    -0.433000000     3.021000000    -3.997000000
C    -1.471000000     2.987000000    -3.129000000
C    -2.365000000     1.909000000    -3.064000000
H    -3.285000000     1.968000000    -2.489000000
C    -2.188000000     0.862000000    -3.935000000
O    -3.183000000    -0.112000000    -3.929000000
C    -2.946000000    -1.371000000    -3.162000000
H    -2.129000000    -1.241000000    -2.437000000
C    -4.214000000    -1.921000000    -2.519000000
C    -4.458000000    -3.224000000    -2.346000000
H    -3.726000000    -3.995000000    -2.572000000
C    -5.125000000    -0.989000000    -2.047000000
H    -4.981000000     0.087000000    -2.104000000
C    -6.149000000    -1.413000000    -1.292000000
O    -6.730000000    -0.478000000    -0.509000000
C    -6.432000000    -2.783000000    -1.160000000
H    -7.193000000    -2.994000000    -0.414000000
C    -5.628000000    -3.685000000    -1.772000000
O    -5.724000000    -5.076000000    -1.562000000
C    -4.714000000    -5.898000000    -1.010000000
C    -3.888000000    -5.428000000    -0.054000000
H    -4.165000000    -4.565000000     0.545000000
C    -4.455000000    -7.138000000    -1.616000000
H    -5.211000000    -7.489000000    -2.312000000
C    -3.247000000    -7.840000000    -1.449000000
H    -2.873000000    -8.646000000    -2.075000000
C    -2.366000000    -7.278000000    -0.481000000
H    -1.458000000    -7.830000000    -0.251000000
C    -2.737000000    -6.154000000     0.290000000
O    -1.977000000    -5.876000000     1.399000000
C    -0.736000000    -5.344000000     1.340000000
C     0.011000000    -5.398000000     2.468000000
H    -0.551000000    -5.860000000     3.275000000
C     1.364000000    -4.990000000     2.535000000
O     2.126000000    -4.959000000     3.724000000
C     3.035000000    -3.960000000     3.962000000
C     2.610000000    -2.668000000     4.424000000
H     1.552000000    -2.548000000     4.645000000
C     4.399000000    -4.197000000     3.706000000
H     4.729000000    -5.201000000     3.450000000
C     5.323000000    -3.177000000     3.933000000
H     6.379000000    -3.301000000     3.706000000
C     4.945000000    -1.948000000     4.481000000
H     5.618000000    -1.123000000     4.698000000
C     3.605000000    -1.687000000     4.708000000
O     3.280000000    -0.461000000     5.274000000
C     3.305000000     0.793000000     4.609000000
C     3.048000000     1.887000000     5.340000000
H     2.840000000     1.845000000     6.406000000
C     3.157000000     3.169000000     4.709000000
O     2.942000000     4.316000000     5.337000000
C     2.143000000     5.377000000     4.891000000
C     0.863000000     5.050000000     4.347000000
H     0.397000000     4.073000000     4.446000000
C     2.606000000     6.716000000     4.845000000
H     3.555000000     6.935000000     5.328000000
C     1.749000000     7.722000000     4.261000000
H     1.928000000     8.793000000     4.227000000
C     0.451000000     7.352000000     3.908000000
H    -0.246000000     8.140000000     3.636000000
C     0.034000000     6.046000000     3.874000000
O    -1.270000000     5.801000000     3.559000000
C    -1.792000000     5.059000000     2.553000000
C    -3.083000000     4.599000000     2.686000000
H    -3.626000000     4.818000000     3.602000000
C    -3.713000000     3.992000000     1.566000000
O    -4.989000000     3.530000000     1.688000000
C    -5.137000000     2.096000000     1.566000000
C    -4.424000000     1.321000000     2.508000000
H    -3.768000000     1.840000000     3.201000000
C    -4.505000000    -0.025000000     2.527000000
H    -3.950000000    -0.641000000     3.230000000
C    -5.226000000    -0.621000000     1.524000000
H    -5.154000000    -1.699000000     1.405000000
C    -5.962000000     0.139000000     0.487000000
C    -5.930000000     1.538000000     0.546000000
H    -6.417000000     2.216000000    -0.151000000
C    -0.177000000    -0.788000000     3.083000000
H     0.533000000    -0.552000000     3.871000000
C    -0.099000000    -0.179000000     1.793000000
H     0.662000000     0.572000000     1.597000000
C    -1.004000000    -0.562000000     0.808000000
H    -0.957000000    -0.154000000    -0.220000000
C    -1.877000000    -1.604000000     1.061000000
H    -2.563000000    -1.897000000     0.270000000
C    -2.003000000    -2.177000000     2.356000000
H    -2.663000000    -3.012000000     2.576000000
C    -1.146000000    -1.704000000     3.354000000
C    -1.278000000    -2.355000000     4.714000000
O    -2.148000000    -3.228000000     4.943000000
O    -0.552000000    -1.927000000     5.627000000
O    -2.135000000    -1.515000000     7.713000000
H    -2.333000000    -0.605000000     7.493000000
H    -1.563000000    -1.814000000     7.006000000
O    -5.520000000    -0.186000000     5.848000000
H    -5.949000000     0.056000000     5.027000000
H    -4.789000000     0.427000000     5.926000000
O    -7.673000000    -2.909000000     3.801000000
H    -7.515000000    -3.606000000     3.164000000
H    -6.900000000    -2.922000000     4.367000000
O     0.407000000    -1.250000000    10.130000000
H     0.099000000    -0.713000000     9.400000000
H     1.141000000    -1.746000000     9.769000000
O    -6.290000000    -3.606000000     7.585000000
H    -6.944000000    -3.813000000     6.917000000
H    -5.451000000    -3.796000000     7.165000000
O    -4.216000000    -6.284000000     8.274000000
H    -3.697000000    -5.591000000     7.865000000
H    -5.044000000    -6.277000000     7.793000000
O    -3.486000000    -5.384000000     3.743000000
H    -2.916000000    -5.904000000     3.176000000
H    -2.927000000    -4.672000000     4.055000000
O     3.292000000    -5.504000000     6.576000000
H     4.066000000    -5.084000000     6.950000000
H     2.641000000    -4.805000000     6.524000000
O    -3.449000000    -0.882000000    10.232000000
H    -3.078000000    -0.005000000    10.134000000
H    -3.007000000    -1.405000000     9.563000000
O     0.727000000     0.279000000     6.767000000
H     0.126000000    -0.399000000     6.457000000
H     1.592000000    -0.126000000     6.716000000
O     0.429000000     2.532000000     8.608000000
H     0.952000000     1.953000000     8.054000000
H     1.040000000     3.215000000     8.885000000
O    -3.413000000    -3.919000000     7.335000000
H    -3.200000000    -3.083000000     7.750000000
H    -2.628000000    -4.148000000     6.839000000
O    -1.516000000     1.476000000     4.785000000
H    -1.003000000     1.312000000     3.994000000
H    -0.963000000     1.158000000     5.499000000
O    -0.842000000    -5.420000000     6.160000000
H    -0.905000000    -6.226000000     5.647000000
H    -1.311000000    -4.768000000     5.640000000
O    -4.932000000    -2.676000000     4.782000000
H    -4.845000000    -1.920000000     5.363000000
H    -4.096000000    -3.136000000     4.861000000
O    -2.266000000     1.639000000     8.411000000
H    -2.500000000     1.803000000     9.324000000
H    -1.419000000     2.071000000     8.300000000
O     1.065000000    -3.829000000     7.225000000
H     0.629000000    -3.093000000     6.796000000
H     0.547000000    -4.594000000     6.972000000
O     2.481000000    -1.977000000     8.609000000
H     2.981000000    -2.468000000     9.261000000
H     2.193000000    -2.639000000     7.980000000
O    -3.790000000     1.845000000     6.059000000
H    -3.548000000     1.714000000     6.976000000
H    -2.956000000     1.986000000     5.610000000
