215
-1437.37194
C     1.193000000    -4.225000000     1.447000000
H     2.165000000    -3.751000000     1.548000000
C     0.637000000    -4.181000000     0.146000000
C    -0.656000000    -4.685000000    -0.041000000
H    -1.099000000    -4.899000000    -1.010000000
C     1.272000000    -3.422000000    -1.014000000
O     2.720000000    -3.513000000    -0.910000000
H     0.930000000    -2.377000000    -1.006000000
O     0.899000000    -3.991000000    -2.334000000
C     0.587000000    -3.154000000    -3.342000000
C    -0.784000000    -2.934000000    -3.591000000
H    -1.532000000    -3.483000000    -3.023000000
C    -1.190000000    -1.935000000    -4.539000000
O    -2.541000000    -1.638000000    -4.568000000
C    -0.181000000    -1.180000000    -5.129000000
C    -0.617000000     0.082000000    -5.845000000
H     0.168000000     0.257000000    -6.583000000
C    -0.714000000     1.193000000    -4.799000000
C     0.247000000     2.209000000    -4.790000000
H     1.238000000     2.190000000    -5.237000000
H    -1.515000000    -0.188000000    -6.405000000
C     1.154000000    -1.443000000    -4.896000000
H     1.931000000    -0.771000000    -5.251000000
C     1.592000000    -2.494000000    -4.018000000
C     3.066000000    -2.680000000    -3.630000000
H     3.714000000    -2.353000000    -4.445000000
H     3.242000000    -3.742000000    -3.444000000
C     3.473000000    -1.844000000    -2.381000000
C     4.079000000    -0.618000000    -2.616000000
H     4.153000000    -0.261000000    -3.640000000
C     3.360000000    -2.270000000    -1.094000000
C     3.906000000    -1.563000000    -0.010000000
H     3.897000000    -2.023000000     0.975000000
C     4.598000000    -0.365000000    -0.265000000
O     4.965000000     0.289000000     0.833000000
C     4.117000000     1.348000000     1.296000000
C     3.803000000     1.178000000     2.815000000
C     3.156000000     2.205000000     3.524000000
H     2.896000000     3.110000000     2.981000000
C     4.063000000     0.005000000     3.416000000
H     4.537000000    -0.854000000     2.948000000
O     4.437000000     2.664000000     0.815000000
H     3.198000000     1.156000000     0.722000000
C     4.553000000     0.173000000    -1.558000000
C     5.093000000     1.546000000    -1.800000000
H     5.535000000     1.501000000    -2.797000000
H     5.879000000     1.891000000    -1.125000000
C     4.075000000     2.693000000    -1.641000000
C     3.222000000     3.129000000    -2.682000000
H     3.359000000     2.809000000    -3.712000000
C     3.758000000     3.134000000    -0.320000000
C     2.632000000     3.922000000    -0.088000000
H     2.266000000     4.103000000     0.920000000
C     1.903000000     4.392000000    -1.183000000
O     0.748000000     5.126000000    -0.957000000
C    -0.451000000     4.366000000    -0.908000000
C    -1.358000000     4.826000000     0.264000000
C    -0.830000000     5.374000000     1.419000000
H     0.230000000     5.568000000     1.563000000
C    -2.713000000     4.524000000     0.194000000
H    -3.172000000     4.158000000    -0.721000000
O    -1.118000000     4.441000000    -2.176000000
H    -0.103000000     3.347000000    -0.686000000
C     2.195000000     3.963000000    -2.464000000
C     1.195000000     4.323000000    -3.627000000
H     1.871000000     4.296000000    -4.484000000
H     0.845000000     5.355000000    -3.558000000
C     0.101000000     3.250000000    -3.829000000
C    -1.038000000     3.394000000    -3.073000000
C    -1.975000000     2.403000000    -3.141000000
H    -2.843000000     2.433000000    -2.487000000
C    -1.867000000     1.330000000    -4.021000000
O    -3.012000000     0.507000000    -4.010000000
C    -2.964000000    -0.768000000    -3.523000000
H    -2.252000000    -0.782000000    -2.684000000
C    -4.220000000    -1.244000000    -2.819000000
C    -4.619000000    -2.591000000    -2.728000000
H    -4.095000000    -3.338000000    -3.319000000
C    -4.850000000    -0.323000000    -1.937000000
H    -4.485000000     0.700000000    -1.917000000
C    -5.993000000    -0.700000000    -1.252000000
O    -6.648000000     0.290000000    -0.530000000
C    -6.394000000    -2.036000000    -1.202000000
H    -7.206000000    -2.411000000    -0.585000000
C    -5.752000000    -2.975000000    -1.970000000
O    -6.109000000    -4.324000000    -1.830000000
C    -5.098000000    -5.212000000    -1.561000000
C    -4.338000000    -5.140000000    -0.439000000
H    -4.708000000    -4.484000000     0.344000000
C    -4.748000000    -6.165000000    -2.477000000
H    -5.353000000    -6.185000000    -3.379000000
C    -3.710000000    -7.096000000    -2.316000000
H    -3.441000000    -7.794000000    -3.105000000
C    -2.879000000    -6.878000000    -1.223000000
H    -1.958000000    -7.418000000    -1.022000000
C    -3.213000000    -5.984000000    -0.218000000
O    -2.574000000    -5.748000000     0.963000000
C    -1.263000000    -5.352000000     0.992000000
C    -0.677000000    -5.385000000     2.261000000
H    -1.206000000    -5.870000000     3.078000000
C     0.516000000    -4.761000000     2.532000000
O     0.984000000    -4.867000000     3.760000000
C     2.200000000    -4.384000000     4.093000000
C     2.419000000    -3.080000000     4.603000000
H     1.644000000    -2.337000000     4.774000000
C     3.264000000    -5.233000000     3.940000000
H     3.123000000    -6.255000000     3.596000000
C     4.579000000    -4.894000000     4.238000000
H     5.347000000    -5.651000000     4.100000000
C     4.827000000    -3.585000000     4.736000000
H     5.843000000    -3.279000000     4.974000000
C     3.741000000    -2.691000000     4.951000000
O     3.965000000    -1.432000000     5.497000000
C     3.687000000    -0.186000000     4.787000000
C     3.107000000     0.858000000     5.489000000
H     2.817000000     0.701000000     6.525000000
C     2.879000000     2.059000000     4.892000000
O     2.229000000     3.038000000     5.609000000
C     1.851000000     4.348000000     5.273000000
C     0.578000000     4.563000000     4.646000000
H    -0.078000000     3.711000000     4.485000000
C     2.780000000     5.402000000     5.312000000
H     3.775000000     5.274000000     5.731000000
C     2.391000000     6.650000000     4.898000000
H     3.012000000     7.534000000     5.021000000
C     1.158000000     6.849000000     4.349000000
H     0.835000000     7.870000000     4.161000000
C     0.224000000     5.819000000     4.189000000
O    -1.064000000     6.137000000     3.596000000
C    -1.632000000     5.627000000     2.492000000
C    -3.006000000     5.238000000     2.484000000
H    -3.509000000     5.194000000     3.447000000
C    -3.547000000     4.739000000     1.299000000
O    -4.824000000     4.300000000     1.253000000
C    -5.150000000     2.976000000     1.484000000
C    -4.732000000     2.267000000     2.622000000
H    -4.165000000     2.758000000     3.409000000
C    -4.968000000     0.902000000     2.702000000
H    -4.584000000     0.312000000     3.530000000
C    -5.605000000     0.268000000     1.704000000
H    -5.676000000    -0.815000000     1.773000000
C    -6.033000000     0.948000000     0.534000000
C    -5.805000000     2.305000000     0.443000000
H    -6.131000000     2.733000000    -0.501000000
C    -0.455000000     0.287000000     1.976000000
H    -0.065000000     0.941000000     2.752000000
C    -0.127000000     0.456000000     0.580000000
H     0.528000000     1.222000000     0.173000000
C    -0.696000000    -0.427000000    -0.320000000
H    -0.463000000    -0.238000000    -1.415000000
C    -1.541000000    -1.462000000     0.070000000
H    -2.134000000    -2.039000000    -0.634000000
C    -1.857000000    -1.637000000     1.446000000
H    -2.554000000    -2.416000000     1.743000000
C    -1.304000000    -0.790000000     2.405000000
C    -1.493000000    -1.077000000     3.888000000
O    -2.362000000    -1.874000000     4.196000000
O    -0.883000000    -0.543000000     4.815000000
O    -5.624000000    -4.832000000     7.343000000
H    -5.663000000    -5.432000000     8.088000000
H    -6.067000000    -4.041000000     7.650000000
O     0.284000000    -5.985000000     6.136000000
H    -0.329000000    -6.655000000     5.834000000
H    -0.031000000    -5.174000000     5.737000000
O    -7.644000000    -4.857000000     4.798000000
H    -6.927000000    -5.208000000     5.326000000
H    -7.288000000    -4.058000000     4.410000000
O    -4.676000000    -6.918000000     3.479000000
H    -4.074000000    -7.362000000     2.882000000
H    -4.137000000    -6.256000000     3.912000000
O    -6.799000000    -2.415000000     3.864000000
H    -7.124000000    -1.904000000     3.123000000
H    -5.847000000    -2.397000000     3.769000000
O    -1.657000000     1.135000000     9.758000000
H    -2.586000000     1.129000000     9.988000000
H    -1.205000000     0.958000000    10.583000000
O     0.311000000    -1.547000000     7.176000000
H     1.264000000    -1.632000000     7.155000000
H     0.092000000    -1.101000000     6.358000000
O    -0.033000000    -4.324000000     8.856000000
H     0.045000000    -4.058000000     7.940000000
H    -0.902000000    -4.021000000     9.120000000
O    -0.242000000    -1.672000000     9.798000000
H    -0.247000000    -1.662000000     8.841000000
H    -1.085000000    -2.058000000    10.038000000
O    -4.660000000     1.893000000     8.587000000
H    -4.161000000     2.703000000     8.690000000
H    -4.085000000     1.319000000     8.081000000
O    -0.712000000     3.008000000     7.757000000
H    -1.214000000     3.790000000     7.527000000
H    -1.133000000     2.679000000     8.551000000
O    -3.741000000    -0.361000000     6.133000000
H    -3.408000000     0.517000000     5.945000000
H    -3.370000000    -0.910000000     5.443000000
O    -2.313000000    -6.959000000     5.552000000
H    -2.253000000    -6.004000000     5.522000000
H    -3.121000000    -7.133000000     6.035000000
O    -4.055000000    -3.724000000     4.140000000
H    -4.078000000    -3.368000000     5.029000000
H    -3.366000000    -3.227000000     3.701000000
O    -1.956000000     1.594000000     5.675000000
H    -1.458000000     0.868000000     5.299000000
H    -1.408000000     1.912000000     6.393000000
O     1.363000000     1.613000000     8.893000000
H     0.856000000     2.252000000     8.391000000
H     0.735000000     0.925000000     9.110000000
O    -1.441000000    -4.056000000     5.816000000
H    -1.351000000    -3.332000000     5.196000000
H    -1.704000000    -3.639000000     6.636000000
O    -6.176000000    -2.350000000     8.801000000
H    -7.027000000    -2.357000000     9.241000000
H    -6.013000000    -1.427000000     8.609000000
O    -2.672000000    -2.395000000     7.753000000
H    -3.596000000    -2.475000000     7.988000000
H    -2.627000000    -1.599000000     7.223000000
