215
-1471.92582
C    -2.054000000    -1.915000000    -4.735000000
H    -1.120000000    -2.439000000    -4.921000000
C    -1.985000000    -0.497000000    -4.540000000
C    -3.206000000     0.134000000    -4.269000000
H    -3.158000000     1.147000000    -3.877000000
C    -0.621000000     0.168000000    -4.318000000
O     0.457000000    -0.467000000    -5.130000000
H    -0.347000000     0.035000000    -3.260000000
O    -0.626000000     1.561000000    -4.697000000
C     0.124000000     2.475000000    -3.977000000
C    -0.584000000     3.361000000    -3.126000000
H    -1.667000000     3.297000000    -3.057000000
C     0.126000000     4.114000000    -2.170000000
O    -0.654000000     4.664000000    -1.178000000
C     1.567000000     4.153000000    -2.111000000
C     2.267000000     4.999000000    -1.083000000
H     3.224000000     5.303000000    -1.512000000
C     2.382000000     4.189000000     0.236000000
C     3.532000000     3.543000000     0.596000000
H     4.362000000     3.617000000    -0.102000000
H     1.761000000     5.943000000    -0.871000000
C     2.202000000     3.325000000    -3.083000000
H     3.286000000     3.252000000    -3.085000000
C     1.511000000     2.447000000    -3.968000000
C     2.328000000     1.573000000    -4.798000000
H     3.294000000     2.005000000    -5.069000000
H     1.892000000     1.566000000    -5.799000000
C     2.522000000     0.199000000    -4.189000000
C     3.674000000    -0.043000000    -3.360000000
H     4.383000000     0.764000000    -3.197000000
C     1.611000000    -0.796000000    -4.430000000
C     1.784000000    -2.016000000    -3.756000000
H     0.977000000    -2.738000000    -3.666000000
C     2.849000000    -2.298000000    -2.914000000
O     2.761000000    -3.449000000    -2.043000000
C     2.529000000    -3.340000000    -0.599000000
C     1.614000000    -4.459000000    -0.176000000
C     1.699000000    -4.895000000     1.106000000
H     2.499000000    -4.512000000     1.733000000
C     0.563000000    -4.772000000    -1.006000000
H     0.624000000    -4.300000000    -1.983000000
O     3.747000000    -3.273000000     0.136000000
H     2.036000000    -2.379000000    -0.392000000
C     3.817000000    -1.263000000    -2.701000000
C     4.995000000    -1.515000000    -1.798000000
H     5.882000000    -0.941000000    -2.076000000
H     5.223000000    -2.573000000    -1.944000000
C     4.763000000    -1.108000000    -0.322000000
C     4.926000000     0.168000000     0.141000000
H     5.341000000     0.959000000    -0.478000000
C     4.187000000    -2.055000000     0.537000000
C     3.844000000    -1.780000000     1.850000000
H     3.237000000    -2.454000000     2.449000000
C     3.908000000    -0.451000000     2.272000000
O     3.500000000    -0.160000000     3.573000000
C     2.282000000     0.624000000     3.628000000
C     1.291000000     0.125000000     4.621000000
C     1.315000000    -1.193000000     5.094000000
H     2.056000000    -1.927000000     4.789000000
C     0.334000000     0.978000000     5.091000000
H     0.251000000     2.020000000     4.791000000
O     2.621000000     1.996000000     3.779000000
H     1.768000000     0.525000000     2.660000000
C     4.549000000     0.515000000     1.425000000
C     4.866000000     1.958000000     1.880000000
H     5.734000000     2.297000000     1.310000000
H     5.124000000     2.009000000     2.940000000
C     3.604000000     2.763000000     1.722000000
C     2.608000000     2.854000000     2.697000000
C     1.434000000     3.582000000     2.404000000
H     0.636000000     3.520000000     3.139000000
C     1.350000000     4.202000000     1.202000000
O     0.097000000     4.710000000     0.877000000
C    -0.751000000     3.969000000     0.069000000
H    -0.479000000     2.906000000    -0.005000000
C    -2.200000000     4.102000000     0.536000000
C    -3.300000000     3.779000000    -0.358000000
H    -3.024000000     3.449000000    -1.357000000
C    -2.490000000     4.432000000     1.842000000
H    -1.683000000     4.699000000     2.519000000
C    -3.792000000     4.354000000     2.313000000
O    -4.077000000     4.604000000     3.643000000
C    -4.854000000     3.959000000     1.452000000
H    -5.782000000     3.806000000     1.998000000
C    -4.609000000     3.678000000     0.127000000
O    -5.728000000     3.259000000    -0.629000000
C    -5.730000000     3.125000000    -1.919000000
C    -5.733000000     1.865000000    -2.425000000
H    -5.719000000     0.971000000    -1.807000000
C    -5.699000000     4.292000000    -2.692000000
H    -5.678000000     5.284000000    -2.246000000
C    -5.495000000     4.094000000    -4.064000000
H    -5.219000000     4.927000000    -4.706000000
C    -5.454000000     2.829000000    -4.645000000
H    -5.317000000     2.637000000    -5.706000000
C    -5.580000000     1.686000000    -3.834000000
O    -5.541000000     0.396000000    -4.316000000
C    -4.447000000    -0.462000000    -4.391000000
C    -4.469000000    -1.803000000    -4.710000000
H    -5.435000000    -2.293000000    -4.808000000
C    -3.273000000    -2.479000000    -4.912000000
O    -3.326000000    -3.813000000    -5.207000000
C    -2.485000000    -4.720000000    -4.684000000
C    -2.345000000    -4.881000000    -3.331000000
H    -3.043000000    -4.364000000    -2.678000000
C    -1.704000000    -5.542000000    -5.506000000
H    -1.814000000    -5.473000000    -6.585000000
C    -0.780000000    -6.472000000    -4.989000000
H    -0.192000000    -7.023000000    -5.718000000
C    -0.694000000    -6.671000000    -3.634000000
H     0.075000000    -7.357000000    -3.288000000
C    -1.530000000    -5.880000000    -2.801000000
O    -1.451000000    -6.057000000    -1.408000000
C    -0.372000000    -5.717000000    -0.617000000
C    -0.256000000    -6.265000000     0.670000000
H    -0.924000000    -7.037000000     1.041000000
C     0.738000000    -5.841000000     1.569000000
O     0.746000000    -6.426000000     2.868000000
C     1.155000000    -5.688000000     3.969000000
C     0.367000000    -4.728000000     4.541000000
H    -0.516000000    -4.392000000     4.004000000
C     2.376000000    -6.018000000     4.600000000
H     2.959000000    -6.817000000     4.149000000
C     2.752000000    -5.405000000     5.803000000
H     3.610000000    -5.811000000     6.333000000
C     1.943000000    -4.471000000     6.353000000
H     2.304000000    -3.964000000     7.244000000
C     0.801000000    -3.994000000     5.673000000
O     0.034000000    -2.967000000     6.162000000
C     0.177000000    -1.631000000     5.778000000
C    -0.841000000    -0.781000000     6.242000000
H    -1.741000000    -1.201000000     6.684000000
C    -0.812000000     0.541000000     5.862000000
O    -1.914000000     1.298000000     6.060000000
C    -1.991000000     2.682000000     5.814000000
C    -1.386000000     3.652000000     6.526000000
H    -0.761000000     3.383000000     7.374000000
C    -1.626000000     5.036000000     6.265000000
H    -1.083000000     5.858000000     6.724000000
C    -2.526000000     5.354000000     5.296000000
H    -2.677000000     6.397000000     5.030000000
C    -3.147000000     4.316000000     4.646000000
C    -2.931000000     2.984000000     4.934000000
H    -3.346000000     2.173000000     4.342000000
C    -0.331000000    -0.605000000     1.673000000
H     0.035000000    -1.264000000     2.457000000
C     0.559000000    -0.140000000     0.617000000
H     1.632000000    -0.316000000     0.646000000
C     0.083000000     0.428000000    -0.563000000
H     0.769000000     0.733000000    -1.378000000
C    -1.284000000     0.726000000    -0.654000000
H    -1.687000000     1.291000000    -1.491000000
C    -2.149000000     0.267000000     0.315000000
H    -3.186000000     0.586000000     0.249000000
C    -1.724000000    -0.408000000     1.504000000
C    -2.626000000    -0.923000000     2.601000000
O    -3.762000000    -0.573000000     2.758000000
O    -2.219000000    -2.005000000     3.144000000
O    -7.109000000     1.921000000     4.904000000
H    -6.307000000     1.501000000     4.592000000
H    -7.421000000     2.426000000     4.154000000
O    -2.485000000    -4.139000000     1.577000000
H    -2.238000000    -3.424000000     2.163000000
H    -2.215000000    -3.841000000     0.709000000
O    -5.903000000     0.547000000     1.327000000
H    -5.909000000     0.251000000     0.416000000
H    -5.145000000     0.111000000     1.716000000
O    -3.743000000    -6.212000000     0.197000000
H    -3.374000000    -5.459000000     0.657000000
H    -3.218000000    -6.288000000    -0.599000000
O    -7.859000000     2.223000000     2.277000000
H    -8.609000000     1.891000000     1.784000000
H    -7.114000000     1.721000000     1.946000000
O    -1.559000000    -2.449000000    -0.800000000
H    -0.850000000    -2.200000000    -0.207000000
H    -2.052000000    -1.640000000    -0.936000000
O    -7.560000000    -0.667000000    -0.934000000
H    -8.024000000    -0.438000000    -1.740000000
H    -7.476000000    -1.620000000    -0.969000000
O    -7.794000000    -2.415000000     1.489000000
H    -6.975000000    -2.897000000     1.606000000
H    -7.519000000    -1.511000000     1.336000000
O    -4.782000000    -5.233000000     5.942000000
H    -4.855000000    -5.816000000     5.186000000
H    -4.068000000    -4.636000000     5.716000000
O    -9.091000000    -0.134000000     4.876000000
H    -8.246000000     0.297000000     4.743000000
H    -9.601000000     0.492000000     5.390000000
O    -5.906000000    -0.848000000     4.865000000
H    -5.255000000    -0.829000000     4.164000000
H    -6.232000000    -1.748000000     4.866000000
O    -3.737000000    -7.256000000     3.382000000
H    -2.931000000    -7.767000000     3.304000000
H    -3.608000000    -6.514000000     2.791000000
O    -5.063000000    -2.878000000     1.926000000
H    -4.393000000    -3.562000000     1.947000000
H    -4.754000000    -2.221000000     2.550000000
O    -6.890000000    -3.647000000     5.295000000
H    -6.218000000    -4.284000000     5.539000000
H    -7.692000000    -4.164000000     5.219000000
O    -4.546000000    -1.394000000    -0.724000000
H    -4.914000000    -1.416000000    -1.607000000
H    -4.471000000    -2.315000000    -0.474000000
O    -4.841000000    -0.308000000     7.532000000
H    -5.517000000    -0.441000000     6.867000000
H    -4.268000000    -1.070000000     7.447000000
O    -4.890000000    -4.070000000    -1.133000000
H    -5.016000000    -4.992000000    -0.907000000
H    -5.610000000    -3.870000000    -1.731000000
O    -2.735000000    -3.472000000     5.473000000
H    -2.101000000    -3.205000000     6.139000000
H    -2.573000000    -2.882000000     4.737000000
O    -6.235000000    -6.052000000     1.907000000
H    -5.864000000    -5.838000000     1.051000000
H    -6.538000000    -5.212000000     2.252000000
