215
-1450.26357
C     2.275000000    -4.540000000     1.064000000
H     3.202000000    -3.985000000     1.183000000
C     1.517000000    -4.430000000    -0.123000000
C     0.356000000    -5.198000000    -0.232000000
H    -0.170000000    -5.360000000    -1.169000000
C     1.985000000    -3.589000000    -1.280000000
O     3.431000000    -3.213000000    -1.150000000
H     1.447000000    -2.635000000    -1.172000000
O     1.573000000    -4.070000000    -2.633000000
C     1.093000000    -3.039000000    -3.419000000
C    -0.272000000    -3.028000000    -3.546000000
H    -0.832000000    -3.783000000    -3.000000000
C    -0.863000000    -2.035000000    -4.269000000
O    -2.275000000    -1.971000000    -4.261000000
C    -0.074000000    -1.063000000    -4.900000000
C    -0.775000000     0.075000000    -5.609000000
H    -0.048000000     0.415000000    -6.349000000
C    -1.116000000     1.213000000    -4.659000000
C    -0.198000000     2.262000000    -4.534000000
H     0.742000000     2.303000000    -5.079000000
H    -1.662000000    -0.328000000    -6.103000000
C     1.263000000    -1.143000000    -4.911000000
H     1.865000000    -0.477000000    -5.524000000
C     1.883000000    -2.122000000    -4.079000000
C     3.418000000    -2.109000000    -3.927000000
H     3.767000000    -1.648000000    -4.854000000
H     3.845000000    -3.112000000    -3.877000000
C     3.821000000    -1.290000000    -2.675000000
C     4.021000000     0.092000000    -2.795000000
H     4.024000000     0.575000000    -3.769000000
C     3.881000000    -1.932000000    -1.416000000
C     4.289000000    -1.239000000    -0.291000000
H     4.214000000    -1.664000000     0.707000000
C     4.535000000     0.136000000    -0.467000000
O     4.632000000     0.849000000     0.685000000
C     3.614000000     1.799000000     1.061000000
C     3.210000000     1.712000000     2.551000000
C     2.982000000     2.869000000     3.373000000
H     3.249000000     3.835000000     2.952000000
C     2.954000000     0.434000000     3.098000000
H     3.184000000    -0.519000000     2.627000000
O     3.938000000     3.128000000     0.694000000
H     2.684000000     1.589000000     0.511000000
C     4.444000000     0.768000000    -1.708000000
C     4.786000000     2.260000000    -1.935000000
H     5.127000000     2.500000000    -2.944000000
H     5.555000000     2.566000000    -1.223000000
C     3.533000000     3.161000000    -1.701000000
C     2.632000000     3.449000000    -2.749000000
H     2.843000000     3.109000000    -3.760000000
C     3.329000000     3.689000000    -0.422000000
C     2.202000000     4.435000000    -0.148000000
H     2.079000000     4.738000000     0.888000000
C     1.326000000     4.711000000    -1.165000000
O     0.083000000     5.135000000    -0.778000000
C    -1.048000000     4.203000000    -0.743000000
C    -1.908000000     4.475000000     0.491000000
C    -1.458000000     5.133000000     1.577000000
H    -0.448000000     5.536000000     1.549000000
C    -3.215000000     3.943000000     0.587000000
H    -3.521000000     3.319000000    -0.248000000
O    -1.781000000     4.307000000    -1.934000000
H    -0.645000000     3.180000000    -0.769000000
C     1.539000000     4.276000000    -2.499000000
C     0.556000000     4.429000000    -3.650000000
H     1.009000000     4.551000000    -4.636000000
H    -0.081000000     5.309000000    -3.535000000
C    -0.431000000     3.277000000    -3.597000000
C    -1.598000000     3.231000000    -2.765000000
C    -2.457000000     2.225000000    -2.889000000
H    -3.398000000     2.205000000    -2.345000000
C    -2.280000000     1.218000000    -3.858000000
O    -3.210000000     0.203000000    -3.930000000
C    -2.907000000    -0.984000000    -3.298000000
H    -2.227000000    -0.802000000    -2.453000000
C    -4.128000000    -1.637000000    -2.523000000
C    -4.254000000    -3.057000000    -2.373000000
H    -3.531000000    -3.646000000    -2.931000000
C    -4.891000000    -0.817000000    -1.726000000
H    -4.705000000     0.254000000    -1.732000000
C    -5.788000000    -1.419000000    -0.823000000
O    -6.612000000    -0.715000000    -0.002000000
C    -5.996000000    -2.780000000    -0.775000000
H    -6.779000000    -3.191000000    -0.143000000
C    -5.209000000    -3.685000000    -1.543000000
O    -5.270000000    -5.074000000    -1.411000000
C    -4.115000000    -5.900000000    -1.410000000
C    -3.100000000    -5.821000000    -0.465000000
H    -2.924000000    -4.926000000     0.127000000
C    -4.265000000    -7.092000000    -2.150000000
H    -5.059000000    -7.240000000    -2.878000000
C    -3.332000000    -8.145000000    -1.999000000
H    -3.498000000    -9.102000000    -2.487000000
C    -2.275000000    -8.050000000    -1.082000000
H    -1.656000000    -8.900000000    -0.806000000
C    -2.154000000    -6.871000000    -0.387000000
O    -1.288000000    -6.872000000     0.603000000
C    -0.149000000    -5.965000000     0.780000000
C     0.578000000    -6.060000000     2.005000000
H     0.326000000    -6.626000000     2.898000000
C     1.782000000    -5.359000000     2.083000000
O     2.317000000    -5.352000000     3.335000000
C     2.964000000    -4.268000000     3.795000000
C     2.301000000    -3.153000000     4.302000000
H     1.217000000    -3.170000000     4.389000000
C     4.331000000    -4.242000000     3.696000000
H     4.832000000    -5.131000000     3.320000000
C     5.062000000    -3.071000000     4.008000000
H     6.147000000    -3.022000000     3.965000000
C     4.393000000    -1.902000000     4.486000000
H     4.933000000    -0.994000000     4.739000000
C     3.019000000    -2.000000000     4.624000000
O     2.368000000    -0.871000000     5.039000000
C     2.610000000     0.356000000     4.420000000
C     2.374000000     1.486000000     5.208000000
H     2.059000000     1.412000000     6.246000000
C     2.539000000     2.747000000     4.665000000
O     2.287000000     3.783000000     5.495000000
C     1.658000000     4.903000000     5.039000000
C     0.382000000     4.822000000     4.506000000
H    -0.129000000     3.875000000     4.351000000
C     2.258000000     6.122000000     5.099000000
H     3.288000000     6.250000000     5.423000000
C     1.553000000     7.261000000     4.813000000
H     2.030000000     8.230000000     4.687000000
C     0.226000000     7.255000000     4.416000000
H    -0.405000000     8.126000000     4.258000000
C    -0.357000000     5.983000000     4.153000000
O    -1.667000000     5.982000000     3.900000000
C    -2.194000000     5.362000000     2.745000000
C    -3.555000000     4.982000000     2.758000000
H    -4.187000000     5.230000000     3.607000000
C    -4.016000000     4.184000000     1.712000000
O    -5.174000000     3.527000000     1.817000000
C    -5.267000000     2.180000000     1.896000000
C    -4.399000000     1.502000000     2.761000000
H    -3.779000000     2.095000000     3.428000000
C    -4.440000000     0.112000000     2.852000000
H    -3.764000000    -0.428000000     3.510000000
C    -5.090000000    -0.628000000     1.884000000
H    -4.951000000    -1.705000000     1.846000000
C    -5.968000000     0.044000000     0.940000000
C    -5.951000000     1.422000000     0.947000000
H    -6.605000000     1.939000000     0.250000000
C    -0.430000000     0.129000000     1.868000000
H    -0.119000000     0.828000000     2.640000000
C     0.016000000     0.345000000     0.565000000
H     0.579000000     1.251000000     0.358000000
C    -0.364000000    -0.519000000    -0.470000000
H    -0.168000000    -0.178000000    -1.505000000
C    -1.021000000    -1.700000000    -0.117000000
H    -1.299000000    -2.365000000    -0.931000000
C    -1.302000000    -1.964000000     1.202000000
H    -1.692000000    -2.940000000     1.480000000
C    -0.961000000    -1.105000000     2.277000000
C    -1.276000000    -1.403000000     3.686000000
O    -1.819000000    -2.436000000     3.965000000
O    -0.984000000    -0.622000000     4.574000000
O    -0.730000000     1.067000000     9.431000000
H    -1.457000000     1.041000000     8.809000000
H    -0.906000000     1.836000000     9.974000000
O    -1.331000000    -4.102000000     8.040000000
H    -0.957000000    -3.562000000     7.344000000
H    -1.611000000    -4.903000000     7.597000000
O    -3.792000000    -1.587000000     5.850000000
H    -3.621000000    -0.709000000     6.191000000
H    -2.958000000    -1.862000000     5.469000000
O    -7.603000000     0.064000000     3.989000000
H    -7.075000000     0.229000000     3.208000000
H    -7.365000000    -0.824000000     4.256000000
O    -2.798000000    -1.246000000     8.949000000
H    -1.944000000    -1.629000000     8.747000000
H    -3.255000000    -1.220000000     8.108000000
O    -3.866000000    -3.886000000     2.920000000
H    -3.568000000    -4.732000000     3.255000000
H    -3.162000000    -3.278000000     3.144000000
O    -0.349000000    -1.800000000     6.909000000
H    -0.563000000    -1.365000000     6.084000000
H     0.479000000    -1.404000000     7.181000000
O     0.025000000     2.969000000     7.127000000
H    -0.281000000     3.815000000     7.454000000
H     0.843000000     2.812000000     7.599000000
O    -3.732000000    -4.549000000     9.552000000
H    -4.013000000    -5.386000000     9.183000000
H    -3.435000000    -4.041000000     8.797000000
O    -4.060000000    -4.179000000     6.897000000
H    -3.507000000    -4.337000000     6.132000000
H    -4.616000000    -3.442000000     6.643000000
O    -6.121000000    -2.356000000     4.528000000
H    -5.331000000    -2.093000000     4.999000000
H    -5.797000000    -2.760000000     3.723000000
O    -1.717000000     1.850000000     5.271000000
H    -1.176000000     2.227000000     5.965000000
H    -1.304000000     1.008000000     5.077000000
O    -1.748000000    -5.045000000     5.032000000
H    -0.886000000    -5.395000000     5.259000000
H    -1.600000000    -4.107000000     4.909000000
O    -5.723000000    -6.107000000     2.456000000
H    -6.594000000    -6.030000000     2.066000000
H    -5.345000000    -5.232000000     2.374000000
O     1.592000000    -0.206000000     8.278000000
H     2.175000000     0.494000000     8.570000000
H     0.711000000     0.138000000     8.427000000
O    -6.980000000     2.260000000     5.381000000
H    -6.095000000     1.987000000     5.621000000
H    -7.363000000     1.490000000     4.960000000
O     0.809000000    -6.129000000     5.624000000
H     1.037000000    -7.013000000     5.913000000
H     1.152000000    -6.072000000     4.733000000
O    -4.356000000     1.603000000     6.180000000
H    -4.160000000     2.163000000     6.931000000
H    -3.733000000     1.879000000     5.507000000
O    -6.382000000    -0.995000000     7.435000000
H    -5.963000000    -0.528000000     6.713000000
H    -6.810000000    -0.310000000     7.948000000
