215
-1440.95403
C     2.377000000    -4.348000000     1.216000000
H     3.333000000    -3.832000000     1.242000000
C     1.443000000    -4.200000000     0.130000000
C     0.217000000    -4.823000000     0.245000000
H    -0.505000000    -4.552000000    -0.522000000
C     1.791000000    -3.367000000    -1.123000000
O     3.189000000    -3.276000000    -1.379000000
H     1.417000000    -2.367000000    -0.857000000
O     1.291000000    -4.088000000    -2.214000000
C     0.640000000    -3.283000000    -3.102000000
C    -0.720000000    -3.249000000    -3.176000000
H    -1.347000000    -3.843000000    -2.516000000
C    -1.386000000    -2.398000000    -4.049000000
O    -2.733000000    -2.237000000    -3.959000000
C    -0.673000000    -1.526000000    -4.862000000
C    -1.439000000    -0.453000000    -5.692000000
H    -1.008000000    -0.249000000    -6.675000000
C    -1.636000000     0.783000000    -4.834000000
C    -0.699000000     1.856000000    -4.812000000
H     0.036000000     1.846000000    -5.613000000
H    -2.337000000    -0.945000000    -6.072000000
C     0.708000000    -1.680000000    -4.864000000
H     1.248000000    -0.968000000    -5.484000000
C     1.374000000    -2.496000000    -3.980000000
C     2.904000000    -2.396000000    -4.088000000
H     3.264000000    -2.032000000    -5.053000000
H     3.350000000    -3.390000000    -4.006000000
C     3.514000000    -1.508000000    -3.001000000
C     3.715000000    -0.164000000    -3.235000000
H     3.453000000     0.219000000    -4.218000000
C     3.665000000    -1.976000000    -1.725000000
C     4.113000000    -1.190000000    -0.722000000
H     4.269000000    -1.617000000     0.265000000
C     4.418000000     0.140000000    -0.976000000
O     4.771000000     1.000000000     0.029000000
C     3.706000000     1.898000000     0.522000000
C     3.542000000     1.877000000     1.945000000
C     3.516000000     3.102000000     2.707000000
H     3.650000000     4.095000000     2.285000000
C     3.481000000     0.649000000     2.678000000
H     3.404000000    -0.354000000     2.268000000
O     3.922000000     3.278000000     0.115000000
H     2.739000000     1.544000000     0.135000000
C     4.221000000     0.732000000    -2.219000000
C     4.485000000     2.184000000    -2.540000000
H     4.694000000     2.208000000    -3.612000000
H     5.394000000     2.525000000    -2.039000000
C     3.316000000     3.119000000    -2.256000000
C     2.464000000     3.425000000    -3.280000000
H     2.618000000     3.126000000    -4.314000000
C     3.132000000     3.659000000    -0.944000000
C     2.071000000     4.500000000    -0.685000000
H     2.041000000     5.070000000     0.240000000
C     1.062000000     4.592000000    -1.633000000
O    -0.223000000     5.016000000    -1.215000000
C    -1.182000000     4.010000000    -0.780000000
C    -1.913000000     4.354000000     0.468000000
C    -1.286000000     5.194000000     1.446000000
H    -0.258000000     5.442000000     1.193000000
C    -3.135000000     3.760000000     0.833000000
H    -3.692000000     3.182000000     0.100000000
O    -2.034000000     3.782000000    -1.877000000
H    -0.688000000     3.094000000    -0.423000000
C     1.258000000     4.072000000    -2.971000000
C     0.111000000     4.152000000    -4.018000000
H     0.572000000     4.181000000    -5.007000000
H    -0.466000000     5.057000000    -3.816000000
C    -0.789000000     2.936000000    -3.925000000
C    -1.809000000     2.786000000    -2.881000000
C    -2.766000000     1.850000000    -2.897000000
H    -3.633000000     2.017000000    -2.264000000
C    -2.635000000     0.814000000    -3.864000000
O    -3.641000000    -0.121000000    -3.805000000
C    -3.232000000    -1.317000000    -3.021000000
H    -2.357000000    -1.113000000    -2.386000000
C    -4.371000000    -1.836000000    -2.182000000
C    -4.524000000    -3.208000000    -2.128000000
H    -3.875000000    -3.894000000    -2.666000000
C    -5.217000000    -1.018000000    -1.436000000
H    -5.080000000     0.060000000    -1.406000000
C    -6.143000000    -1.554000000    -0.604000000
O    -6.746000000    -0.737000000     0.301000000
C    -6.239000000    -2.939000000    -0.454000000
H    -6.961000000    -3.308000000     0.269000000
C    -5.442000000    -3.819000000    -1.231000000
O    -5.477000000    -5.105000000    -0.904000000
C    -4.291000000    -5.835000000    -0.895000000
C    -3.517000000    -5.611000000     0.185000000
H    -3.841000000    -4.822000000     0.859000000
C    -4.010000000    -6.855000000    -1.722000000
H    -4.766000000    -7.029000000    -2.484000000
C    -2.708000000    -7.479000000    -1.706000000
H    -2.410000000    -8.323000000    -2.322000000
C    -1.849000000    -7.133000000    -0.682000000
H    -0.863000000    -7.586000000    -0.626000000
C    -2.275000000    -6.256000000     0.332000000
O    -1.472000000    -6.105000000     1.472000000
C    -0.201000000    -5.514000000     1.450000000
C     0.695000000    -5.634000000     2.530000000
H     0.474000000    -6.137000000     3.468000000
C     1.976000000    -5.042000000     2.363000000
O     2.797000000    -5.075000000     3.436000000
C     3.535000000    -4.009000000     3.884000000
C     2.870000000    -2.772000000     4.160000000
H     1.870000000    -2.517000000     3.819000000
C     4.887000000    -4.116000000     4.145000000
H     5.351000000    -5.087000000     3.990000000
C     5.588000000    -3.080000000     4.804000000
H     6.576000000    -3.267000000     5.217000000
C     4.954000000    -1.872000000     5.056000000
H     5.537000000    -1.049000000     5.463000000
C     3.611000000    -1.736000000     4.696000000
O     3.040000000    -0.435000000     4.846000000
C     3.299000000     0.680000000     4.089000000
C     3.069000000     1.850000000     4.671000000
H     2.784000000     1.754000000     5.715000000
C     3.181000000     3.062000000     4.057000000
O     3.015000000     4.179000000     4.869000000
C     2.264000000     5.251000000     4.506000000
C     0.895000000     5.066000000     4.136000000
H     0.451000000     4.074000000     4.178000000
C     2.834000000     6.554000000     4.579000000
H     3.893000000     6.668000000     4.795000000
C     1.919000000     7.653000000     4.540000000
H     2.328000000     8.652000000     4.663000000
C     0.635000000     7.467000000     4.113000000
H    -0.054000000     8.308000000     4.131000000
C     0.105000000     6.197000000     3.978000000
O    -1.261000000     6.155000000     3.688000000
C    -1.827000000     5.309000000     2.727000000
C    -3.094000000     4.692000000     2.990000000
H    -3.516000000     4.727000000     3.990000000
C    -3.756000000     3.968000000     2.026000000
O    -4.990000000     3.315000000     2.338000000
C    -5.106000000     2.014000000     2.341000000
C    -4.191000000     1.248000000     3.070000000
H    -3.533000000     1.699000000     3.808000000
C    -4.232000000    -0.162000000     2.981000000
H    -3.582000000    -0.800000000     3.574000000
C    -5.115000000    -0.830000000     2.090000000
H    -5.132000000    -1.916000000     2.049000000
C    -5.953000000    -0.051000000     1.300000000
C    -5.983000000     1.328000000     1.470000000
H    -6.525000000     1.873000000     0.702000000
C     0.004000000    -0.865000000     2.883000000
H     0.562000000    -0.475000000     3.730000000
C     0.211000000    -0.302000000     1.602000000
H     1.010000000     0.403000000     1.391000000
C    -0.494000000    -0.834000000     0.483000000
H    -0.312000000    -0.459000000    -0.503000000
C    -1.373000000    -1.921000000     0.728000000
H    -1.918000000    -2.370000000    -0.098000000
C    -1.523000000    -2.446000000     2.002000000
H    -2.422000000    -3.042000000     2.133000000
C    -0.853000000    -1.913000000     3.095000000
C    -1.311000000    -2.300000000     4.444000000
O    -1.794000000    -3.399000000     4.582000000
O    -1.139000000    -1.621000000     5.396000000
O    -2.677000000    -2.020000000     7.675000000
H    -3.355000000    -1.361000000     7.528000000
H    -2.113000000    -1.961000000     6.905000000
O    -4.356000000     0.021000000     7.277000000
H    -5.117000000    -0.516000000     7.055000000
H    -4.574000000     0.893000000     6.946000000
O    -6.638000000    -0.144000000     5.081000000
H    -6.038000000    -0.263000000     4.345000000
H    -6.932000000    -1.029000000     5.297000000
O    -1.693000000    -3.073000000    10.298000000
H    -1.959000000    -2.781000000     9.426000000
H    -1.633000000    -4.025000000    10.224000000
O    -3.199000000    -5.997000000     3.716000000
H    -2.869000000    -6.818000000     3.350000000
H    -2.582000000    -5.332000000     3.409000000
O     1.794000000    -6.404000000     5.993000000
H     1.733000000    -6.654000000     6.915000000
H     1.486000000    -5.498000000     5.969000000
O     0.449000000    -0.123000000     7.230000000
H    -0.318000000    -0.437000000     6.752000000
H     1.175000000    -0.644000000     6.886000000
O     0.274000000     2.560000000     7.991000000
H     0.237000000     1.604000000     7.959000000
H     1.175000000     2.757000000     8.247000000
O    -4.266000000    -4.147000000     8.787000000
H    -3.791000000    -3.453000000     9.243000000
H    -3.615000000    -4.539000000     8.204000000
O    -5.268000000    -5.372000000     5.381000000
H    -4.795000000    -6.051000000     5.862000000
H    -4.930000000    -5.431000000     4.488000000
O    -5.548000000    -2.610000000     6.711000000
H    -5.185000000    -2.962000000     7.523000000
H    -5.222000000    -3.197000000     6.029000000
O    -1.635000000     1.147000000     5.669000000
H    -0.968000000     1.184000000     6.355000000
H    -1.722000000     0.215000000     5.471000000
O    -2.644000000    -5.301000000     6.562000000
H    -2.648000000    -5.846000000     5.775000000
H    -2.634000000    -4.403000000     6.232000000
O    -6.499000000    -2.895000000     3.850000000
H    -7.255000000    -2.332000000     4.017000000
H    -6.578000000    -3.600000000     4.494000000
O     2.795000000    -0.059000000     9.586000000
H     2.282000000    -0.070000000    10.394000000
H     2.241000000    -0.503000000     8.944000000
O     0.451000000    -3.971000000     5.999000000
H     0.070000000    -3.137000000     6.275000000
H    -0.044000000    -4.213000000     5.217000000
O     2.387000000    -2.133000000     7.410000000
H     2.200000000    -2.793000000     6.742000000
H     3.079000000    -2.523000000     7.944000000
O     0.545000000    -8.766000000     4.800000000
H     0.771000000    -7.842000000     4.907000000
H    -0.340000000    -8.839000000     5.156000000
O    -3.965000000     3.167000000     6.387000000
H    -3.580000000     3.417000000     7.227000000
H    -3.247000000     2.753000000     5.908000000
