215
-1446.29619
C     2.779000000    -4.226000000     0.614000000
H     3.601000000    -3.522000000     0.717000000
C     2.110000000    -4.256000000    -0.581000000
C     1.153000000    -5.254000000    -0.747000000
H     0.643000000    -5.474000000    -1.682000000
C     2.313000000    -3.191000000    -1.604000000
O     3.708000000    -2.704000000    -1.407000000
H     1.586000000    -2.395000000    -1.384000000
O     2.142000000    -3.670000000    -2.970000000
C     1.475000000    -2.916000000    -3.948000000
C     0.118000000    -3.185000000    -4.171000000
H    -0.415000000    -4.030000000    -3.743000000
C    -0.662000000    -2.134000000    -4.716000000
O    -1.962000000    -2.199000000    -4.458000000
C    -0.136000000    -0.971000000    -5.237000000
C    -0.977000000     0.189000000    -5.781000000
H    -0.392000000     0.674000000    -6.565000000
C    -1.354000000     1.280000000    -4.760000000
C    -0.502000000     2.402000000    -4.626000000
H     0.424000000     2.514000000    -5.184000000
H    -1.916000000    -0.202000000    -6.180000000
C     1.234000000    -0.716000000    -4.993000000
H     1.737000000     0.217000000    -5.235000000
C     2.046000000    -1.711000000    -4.306000000
C     3.542000000    -1.471000000    -4.125000000
H     3.852000000    -0.913000000    -5.011000000
H     4.111000000    -2.391000000    -4.273000000
C     3.883000000    -0.700000000    -2.818000000
C     4.123000000     0.677000000    -2.834000000
H     4.143000000     1.174000000    -3.801000000
C     3.907000000    -1.340000000    -1.581000000
C     4.160000000    -0.629000000    -0.424000000
H     4.182000000    -1.166000000     0.521000000
C     4.410000000     0.719000000    -0.436000000
O     4.454000000     1.348000000     0.788000000
C     3.347000000     2.156000000     1.184000000
C     2.883000000     1.924000000     2.674000000
C     2.363000000     2.926000000     3.465000000
H     2.481000000     3.961000000     3.154000000
C     2.800000000     0.597000000     3.140000000
H     3.130000000    -0.204000000     2.484000000
O     3.616000000     3.557000000     0.913000000
H     2.580000000     1.792000000     0.485000000
C     4.371000000     1.369000000    -1.657000000
C     4.544000000     2.873000000    -1.727000000
H     4.885000000     3.166000000    -2.722000000
H     5.312000000     3.283000000    -1.067000000
C     3.319000000     3.646000000    -1.440000000
C     2.415000000     3.790000000    -2.529000000
H     2.505000000     3.375000000    -3.530000000
C     2.947000000     4.058000000    -0.169000000
C     1.640000000     4.535000000     0.095000000
H     1.273000000     4.727000000     1.100000000
C     0.801000000     4.770000000    -1.013000000
O    -0.503000000     5.123000000    -0.737000000
C    -1.535000000     4.099000000    -0.737000000
C    -2.374000000     4.313000000     0.512000000
C    -2.153000000     5.258000000     1.527000000
H    -1.250000000     5.854000000     1.430000000
C    -3.525000000     3.547000000     0.659000000
H    -3.803000000     2.796000000    -0.076000000
O    -2.285000000     4.153000000    -1.959000000
H    -1.084000000     3.098000000    -0.667000000
C     1.145000000     4.387000000    -2.306000000
C     0.128000000     4.556000000    -3.418000000
H     0.569000000     4.816000000    -4.382000000
H    -0.546000000     5.388000000    -3.201000000
C    -0.817000000     3.363000000    -3.617000000
C    -2.052000000     3.245000000    -2.986000000
C    -2.791000000     2.061000000    -3.042000000
H    -3.718000000     1.939000000    -2.487000000
C    -2.418000000     1.063000000    -3.908000000
O    -3.041000000    -0.135000000    -3.906000000
C    -2.450000000    -1.320000000    -3.365000000
H    -1.653000000    -0.867000000    -2.757000000
C    -3.408000000    -2.016000000    -2.347000000
C    -3.377000000    -3.450000000    -2.325000000
H    -2.722000000    -3.950000000    -3.033000000
C    -4.187000000    -1.301000000    -1.429000000
H    -4.111000000    -0.217000000    -1.415000000
C    -5.041000000    -2.028000000    -0.619000000
O    -5.946000000    -1.407000000     0.183000000
C    -5.057000000    -3.416000000    -0.679000000
H    -5.797000000    -3.919000000    -0.062000000
C    -4.194000000    -4.132000000    -1.490000000
O    -4.272000000    -5.489000000    -1.601000000
C    -3.253000000    -6.415000000    -1.505000000
C    -2.079000000    -6.182000000    -0.796000000
H    -2.078000000    -5.323000000    -0.130000000
C    -3.365000000    -7.425000000    -2.431000000
H    -4.249000000    -7.362000000    -3.060000000
C    -2.256000000    -8.321000000    -2.504000000
H    -2.220000000    -9.161000000    -3.192000000
C    -1.169000000    -8.248000000    -1.612000000
H    -0.377000000    -8.992000000    -1.627000000
C    -1.118000000    -7.194000000    -0.781000000
O    -0.052000000    -7.245000000     0.082000000
C     0.808000000    -6.125000000     0.314000000
C     1.560000000    -6.114000000     1.459000000
H     1.343000000    -6.880000000     2.199000000
C     2.557000000    -5.156000000     1.636000000
O     3.463000000    -5.146000000     2.699000000
C     3.634000000    -4.033000000     3.452000000
C     2.628000000    -3.150000000     3.734000000
H     1.644000000    -3.343000000     3.314000000
C     4.972000000    -3.849000000     3.858000000
H     5.686000000    -4.648000000     3.674000000
C     5.251000000    -2.692000000     4.616000000
H     6.277000000    -2.550000000     4.946000000
C     4.197000000    -1.854000000     5.027000000
H     4.527000000    -1.038000000     5.665000000
C     2.915000000    -2.077000000     4.530000000
O     1.938000000    -1.090000000     4.704000000
C     2.119000000     0.261000000     4.340000000
C     1.534000000     1.338000000     5.088000000
H     0.968000000     1.185000000     6.004000000
C     1.588000000     2.641000000     4.606000000
O     1.198000000     3.616000000     5.521000000
C     0.550000000     4.804000000     5.322000000
C    -0.551000000     4.953000000     4.432000000
H    -0.926000000     4.051000000     3.955000000
C     0.937000000     5.948000000     6.091000000
H     1.772000000     5.911000000     6.785000000
C     0.265000000     7.202000000     5.987000000
H     0.600000000     8.098000000     6.503000000
C    -0.823000000     7.317000000     5.073000000
H    -1.348000000     8.268000000     5.110000000
C    -1.229000000     6.175000000     4.342000000
O    -2.486000000     6.156000000     3.738000000
C    -2.923000000     5.387000000     2.637000000
C    -4.072000000     4.652000000     2.760000000
H    -4.568000000     4.721000000     3.725000000
C    -4.408000000     3.751000000     1.765000000
O    -5.426000000     2.938000000     1.994000000
C    -5.193000000     1.550000000     2.111000000
C    -4.708000000     0.990000000     3.279000000
H    -4.412000000     1.716000000     4.032000000
C    -4.632000000    -0.396000000     3.397000000
H    -4.191000000    -0.885000000     4.263000000
C    -5.038000000    -1.199000000     2.362000000
H    -5.094000000    -2.277000000     2.491000000
C    -5.551000000    -0.606000000     1.211000000
C    -5.643000000     0.731000000     1.058000000
H    -5.988000000     1.114000000     0.102000000
C    -0.890000000     0.480000000     2.859000000
H    -1.444000000     0.926000000     3.681000000
C    -0.694000000     1.274000000     1.720000000
H    -0.947000000     2.331000000     1.755000000
C    -0.261000000     0.718000000     0.570000000
H    -0.072000000     1.392000000    -0.355000000
C     0.038000000    -0.636000000     0.512000000
H     0.421000000    -1.092000000    -0.398000000
C    -0.216000000    -1.440000000     1.622000000
H    -0.067000000    -2.514000000     1.553000000
C    -0.763000000    -0.876000000     2.753000000
C    -1.304000000    -1.787000000     3.810000000
O    -1.651000000    -2.862000000     3.480000000
O    -1.650000000    -1.336000000     4.863000000
O    -3.045000000     0.182000000     6.633000000
H    -3.383000000     1.014000000     6.301000000
H    -2.464000000    -0.133000000     5.941000000
O     0.324000000     3.216000000     8.350000000
H    -0.037000000     2.346000000     8.180000000
H     0.313000000     3.651000000     7.498000000
O     2.115000000    -6.335000000     5.110000000
H     1.262000000    -5.907000000     5.185000000
H     2.613000000    -5.774000000     4.516000000
O    -3.336000000    -7.046000000     2.025000000
H    -2.551000000    -6.914000000     1.494000000
H    -3.715000000    -6.171000000     2.114000000
O    -4.323000000    -2.065000000     7.359000000
H    -4.788000000    -1.931000000     8.185000000
H    -3.866000000    -1.239000000     7.205000000
O    -0.246000000     0.585000000     7.925000000
H    -1.045000000     0.491000000     7.407000000
H    -0.219000000    -0.204000000     8.467000000
O    -7.946000000    -1.476000000     3.391000000
H    -7.278000000    -1.685000000     4.043000000
H    -8.165000000    -2.319000000     2.993000000
O    -0.147000000    -2.956000000     6.564000000
H    -0.523000000    -2.248000000     6.041000000
H     0.041000000    -3.648000000     5.930000000
O    -3.192000000     2.906000000     6.273000000
H    -2.662000000     3.683000000     6.095000000
H    -4.095000000     3.222000000     6.258000000
O     3.554000000    -2.504000000     8.419000000
H     2.706000000    -2.693000000     8.821000000
H     3.433000000    -2.717000000     7.494000000
O    -3.095000000    -4.052000000     1.809000000
H    -3.580000000    -3.319000000     1.429000000
H    -2.624000000    -3.669000000     2.548000000
O    -2.770000000    -6.156000000     5.176000000
H    -3.083000000    -5.339000000     4.787000000
H    -3.566000000    -6.655000000     5.357000000
O    -6.199000000    -4.077000000     4.238000000
H    -5.262000000    -3.916000000     4.350000000
H    -6.265000000    -5.023000000     4.106000000
O     0.942000000    -3.452000000     9.106000000
H     0.169000000    -3.196000000     9.611000000
H     0.631000000    -3.505000000     8.203000000
O    -0.265000000    -4.954000000     4.323000000
H    -0.916000000    -5.645000000     4.451000000
H    -0.767000000    -4.211000000     3.989000000
O    -1.505000000    -1.533000000     9.355000000
H    -2.011000000    -2.005000000     8.693000000
H    -1.534000000    -2.099000000    10.126000000
O    -2.077000000    -5.210000000     8.021000000
H    -2.667000000    -4.670000000     8.547000000
H    -2.470000000    -5.213000000     7.148000000
O    -6.687000000    -3.987000000     6.868000000
H    -6.017000000    -3.328000000     7.049000000
H    -6.807000000    -3.953000000     5.919000000
O    -3.701000000    -3.684000000     5.055000000
H    -3.925000000    -3.039000000     5.725000000
H    -2.942000000    -3.311000000     4.608000000
