215
-1429.02510
C     2.058000000    -4.206000000     1.056000000
H     2.883000000    -3.506000000     1.157000000
C     1.496000000    -4.401000000    -0.214000000
C     0.404000000    -5.282000000    -0.347000000
H    -0.169000000    -5.285000000    -1.271000000
C     1.977000000    -3.544000000    -1.317000000
O     3.395000000    -3.326000000    -1.350000000
H     1.495000000    -2.570000000    -1.150000000
O     1.575000000    -4.048000000    -2.631000000
C     1.015000000    -3.111000000    -3.509000000
C    -0.358000000    -3.036000000    -3.562000000
H    -0.915000000    -3.804000000    -3.031000000
C    -1.066000000    -2.087000000    -4.258000000
O    -2.369000000    -2.042000000    -3.923000000
C    -0.319000000    -1.102000000    -4.902000000
C    -1.047000000     0.015000000    -5.675000000
H    -0.402000000     0.311000000    -6.505000000
C    -1.332000000     1.193000000    -4.762000000
C    -0.503000000     2.285000000    -4.699000000
H     0.488000000     2.247000000    -5.143000000
H    -1.905000000    -0.418000000    -6.194000000
C     1.097000000    -1.165000000    -4.984000000
H     1.614000000    -0.481000000    -5.653000000
C     1.754000000    -2.209000000    -4.271000000
C     3.331000000    -2.150000000    -4.048000000
H     3.692000000    -1.665000000    -4.957000000
H     3.804000000    -3.134000000    -4.095000000
C     3.691000000    -1.386000000    -2.780000000
C     4.038000000    -0.057000000    -2.865000000
H     3.907000000     0.455000000    -3.815000000
C     3.748000000    -2.004000000    -1.554000000
C     4.267000000    -1.306000000    -0.423000000
H     4.334000000    -1.749000000     0.567000000
C     4.587000000     0.040000000    -0.579000000
O     4.734000000     0.693000000     0.614000000
C     3.724000000     1.722000000     0.960000000
C     3.625000000     1.711000000     2.494000000
C     3.158000000     2.841000000     3.157000000
H     2.725000000     3.635000000     2.552000000
C     3.701000000     0.511000000     3.179000000
H     4.009000000    -0.423000000     2.717000000
O     3.929000000     3.056000000     0.468000000
H     2.770000000     1.501000000     0.460000000
C     4.470000000     0.727000000    -1.789000000
C     4.796000000     2.230000000    -2.041000000
H     5.299000000     2.326000000    -3.006000000
H     5.527000000     2.726000000    -1.399000000
C     3.491000000     3.094000000    -1.909000000
C     2.580000000     3.456000000    -2.952000000
H     2.728000000     3.083000000    -3.963000000
C     3.183000000     3.475000000    -0.613000000
C     2.041000000     4.186000000    -0.356000000
H     1.824000000     4.352000000     0.696000000
C     1.090000000     4.509000000    -1.304000000
O    -0.095000000     4.977000000    -0.866000000
C    -1.096000000     3.989000000    -0.791000000
C    -1.904000000     4.121000000     0.562000000
C    -1.322000000     4.656000000     1.673000000
H    -0.294000000     5.005000000     1.616000000
C    -3.292000000     3.768000000     0.590000000
H    -3.774000000     3.102000000    -0.121000000
O    -1.988000000     4.140000000    -1.933000000
H    -0.565000000     3.026000000    -0.811000000
C     1.336000000     4.104000000    -2.636000000
C     0.327000000     4.471000000    -3.677000000
H     0.733000000     4.609000000    -4.681000000
H    -0.126000000     5.440000000    -3.456000000
C    -0.703000000     3.344000000    -3.785000000
C    -1.828000000     3.290000000    -2.990000000
C    -2.780000000     2.272000000    -3.052000000
H    -3.673000000     2.323000000    -2.433000000
C    -2.550000000     1.115000000    -3.921000000
O    -3.400000000     0.071000000    -3.896000000
C    -2.988000000    -1.068000000    -3.058000000
H    -2.216000000    -0.698000000    -2.368000000
C    -4.094000000    -1.626000000    -2.194000000
C    -4.048000000    -3.022000000    -1.901000000
H    -3.253000000    -3.661000000    -2.277000000
C    -5.032000000    -0.782000000    -1.634000000
H    -4.990000000     0.291000000    -1.804000000
C    -6.069000000    -1.350000000    -0.845000000
O    -6.934000000    -0.534000000    -0.116000000
C    -5.939000000    -2.712000000    -0.482000000
H    -6.533000000    -3.105000000     0.339000000
C    -4.960000000    -3.523000000    -1.004000000
O    -5.007000000    -4.866000000    -0.545000000
C    -4.059000000    -5.742000000    -0.796000000
C    -2.997000000    -5.887000000     0.088000000
H    -2.865000000    -5.297000000     0.991000000
C    -4.237000000    -6.674000000    -1.815000000
H    -5.118000000    -6.593000000    -2.446000000
C    -3.217000000    -7.607000000    -2.075000000
H    -3.239000000    -8.217000000    -2.974000000
C    -2.089000000    -7.649000000    -1.248000000
H    -1.194000000    -8.241000000    -1.427000000
C    -2.054000000    -6.818000000    -0.167000000
O    -1.036000000    -6.936000000     0.702000000
C    -0.001000000    -6.068000000     0.777000000
C     0.633000000    -5.854000000     2.029000000
H     0.288000000    -6.382000000     2.914000000
C     1.585000000    -4.900000000     2.154000000
O     2.108000000    -4.708000000     3.385000000
C     3.144000000    -3.891000000     3.654000000
C     2.851000000    -2.674000000     4.256000000
H     1.841000000    -2.367000000     4.514000000
C     4.417000000    -4.357000000     3.553000000
H     4.471000000    -5.399000000     3.249000000
C     5.464000000    -3.520000000     3.985000000
H     6.511000000    -3.809000000     3.958000000
C     5.178000000    -2.322000000     4.622000000
H     5.978000000    -1.637000000     4.892000000
C     3.874000000    -1.890000000     4.736000000
O     3.549000000    -0.679000000     5.370000000
C     3.454000000     0.479000000     4.573000000
C     3.249000000     1.651000000     5.240000000
H     3.160000000     1.618000000     6.323000000
C     3.101000000     2.813000000     4.563000000
O     2.694000000     3.861000000     5.320000000
C     1.979000000     4.923000000     4.777000000
C     0.641000000     4.757000000     4.636000000
H     0.122000000     3.820000000     4.818000000
C     2.597000000     6.193000000     4.561000000
H     3.673000000     6.348000000     4.588000000
C     1.771000000     7.256000000     4.297000000
H     2.166000000     8.243000000     4.071000000
C     0.389000000     7.150000000     4.163000000
H    -0.231000000     7.990000000     3.860000000
C    -0.199000000     5.855000000     4.274000000
O    -1.524000000     5.699000000     3.932000000
C    -2.032000000     4.933000000     2.877000000
C    -3.348000000     4.670000000     2.842000000
H    -4.007000000     4.893000000     3.678000000
C    -4.003000000     4.036000000     1.764000000
O    -5.302000000     3.573000000     1.895000000
C    -5.633000000     2.177000000     1.906000000
C    -5.416000000     1.504000000     3.118000000
H    -4.872000000     2.086000000     3.857000000
C    -5.644000000     0.154000000     3.245000000
H    -5.372000000    -0.406000000     4.136000000
C    -6.123000000    -0.525000000     2.126000000
H    -6.340000000    -1.589000000     2.082000000
C    -6.563000000     0.200000000     1.006000000
C    -6.265000000     1.541000000     0.854000000
H    -6.549000000     2.108000000    -0.029000000
C     0.005000000     0.145000000     2.894000000
H     0.256000000     0.585000000     3.856000000
C     0.382000000     0.802000000     1.716000000
H     0.930000000     1.739000000     1.780000000
C     0.264000000     0.122000000     0.487000000
H     0.660000000     0.532000000    -0.470000000
C    -0.362000000    -1.068000000     0.389000000
H    -0.299000000    -1.581000000    -0.567000000
C    -0.943000000    -1.647000000     1.504000000
H    -1.550000000    -2.548000000     1.478000000
C    -0.648000000    -1.142000000     2.767000000
C    -0.964000000    -1.892000000     3.994000000
O    -1.551000000    -2.968000000     4.033000000
O    -0.775000000    -1.374000000     5.092000000
O    -1.129000000    -0.067000000    10.535000000
H    -0.891000000    -0.464000000    11.373000000
H    -1.527000000    -0.781000000    10.037000000
O    -1.389000000    -2.207000000     8.378000000
H    -0.815000000    -1.753000000     7.761000000
H    -1.575000000    -3.047000000     7.959000000
O    -5.650000000    -1.662000000     7.275000000
H    -5.202000000    -1.877000000     6.457000000
H    -5.317000000    -0.796000000     7.510000000
O     1.818000000    -6.043000000     6.521000000
H     2.044000000    -6.740000000     7.137000000
H     1.670000000    -5.274000000     7.071000000
O    -3.046000000    -2.443000000    10.607000000
H    -2.585000000    -2.194000000     9.806000000
H    -3.477000000    -3.269000000    10.388000000
O    -4.028000000    -3.178000000     2.940000000
H    -3.923000000    -2.567000000     2.211000000
H    -3.146000000    -3.275000000     3.299000000
O    -3.687000000     3.965000000     6.616000000
H    -2.974000000     4.181000000     7.217000000
H    -3.504000000     3.067000000     6.341000000
O     0.876000000    -1.259000000     7.101000000
H     0.278000000    -1.284000000     6.355000000
H     1.722000000    -1.524000000     6.740000000
O     0.166000000     2.330000000     7.106000000
H     0.939000000     2.674000000     6.657000000
H     0.469000000     2.144000000     7.995000000
O    -4.183000000    -3.894000000     8.321000000
H    -4.601000000    -3.160000000     7.871000000
H    -3.548000000    -4.233000000     7.690000000
O    -3.336000000    -7.222000000     2.817000000
H    -2.717000000    -6.660000000     2.351000000
H    -2.785000000    -7.863000000     3.266000000
O    -4.277000000    -6.185000000     5.109000000
H    -4.240000000    -6.729000000     4.322000000
H    -3.364000000    -5.961000000     5.288000000
O    -5.930000000    -3.746000000     4.586000000
H    -5.833000000    -4.585000000     5.036000000
H    -5.070000000    -3.581000000     4.199000000
O    -1.905000000     0.761000000     6.046000000
H    -1.333000000     1.289000000     6.603000000
H    -1.365000000     0.015000000     5.786000000
O    -2.281000000    -4.308000000     6.341000000
H    -1.684000000    -5.027000000     6.136000000
H    -2.242000000    -3.738000000     5.574000000
O     2.281000000    -1.923000000     9.970000000
H     1.802000000    -1.560000000    10.716000000
H     1.606000000    -2.338000000     9.432000000
O     2.157000000    -7.935000000     4.433000000
H     2.130000000    -8.309000000     5.314000000
H     2.143000000    -6.988000000     4.573000000
O    -0.712000000    -6.313000000     5.490000000
H    -0.890000000    -7.251000000     5.559000000
H     0.236000000    -6.240000000     5.603000000
O    -4.477000000     0.830000000     7.672000000
H    -4.061000000     1.267000000     8.415000000
H    -3.758000000     0.648000000     7.068000000
