215
-1435.45610
C     3.166000000    -2.876000000     2.327000000
H     3.364000000    -1.808000000     2.349000000
C     3.153000000    -3.464000000     1.101000000
C     2.701000000    -4.820000000     0.997000000
H     2.633000000    -5.314000000     0.031000000
C     3.341000000    -2.662000000    -0.122000000
O     4.520000000    -1.846000000    -0.010000000
H     2.485000000    -1.992000000    -0.291000000
O     3.464000000    -3.489000000    -1.262000000
C     2.688000000    -3.155000000    -2.398000000
C     1.434000000    -3.703000000    -2.634000000
H     0.939000000    -4.344000000    -1.908000000
C     0.541000000    -3.105000000    -3.530000000
O    -0.732000000    -3.599000000    -3.639000000
C     1.064000000    -2.135000000    -4.436000000
C     0.105000000    -1.490000000    -5.448000000
H     0.657000000    -1.001000000    -6.253000000
C    -0.704000000    -0.385000000    -4.788000000
C    -0.190000000     0.962000000    -4.791000000
H     0.782000000     1.146000000    -5.242000000
H    -0.676000000    -2.116000000    -5.883000000
C     2.353000000    -1.589000000    -4.221000000
H     2.652000000    -0.737000000    -4.826000000
C     3.205000000    -2.077000000    -3.177000000
C     4.574000000    -1.380000000    -3.100000000
H     4.712000000    -0.905000000    -4.074000000
H     5.435000000    -2.045000000    -3.004000000
C     4.451000000    -0.303000000    -1.981000000
C     4.287000000     0.995000000    -2.388000000
H     4.191000000     1.210000000    -3.449000000
C     4.518000000    -0.553000000    -0.604000000
C     4.450000000     0.507000000     0.298000000
H     4.497000000     0.277000000     1.359000000
C     4.292000000     1.863000000    -0.076000000
O     3.926000000     2.690000000     0.918000000
C     2.548000000     3.063000000     1.019000000
C     2.013000000     2.983000000     2.458000000
C     0.729000000     3.440000000     2.631000000
H     0.235000000     4.020000000     1.854000000
C     2.704000000     2.412000000     3.537000000
H     3.749000000     2.137000000     3.418000000
O     2.176000000     4.345000000     0.438000000
H     1.903000000     2.349000000     0.488000000
C     4.128000000     2.100000000    -1.431000000
C     3.882000000     3.551000000    -1.928000000
H     4.415000000     3.851000000    -2.833000000
H     4.363000000     4.173000000    -1.171000000
C     2.436000000     3.876000000    -1.937000000
C     1.668000000     3.625000000    -3.078000000
H     2.198000000     3.396000000    -3.999000000
C     1.668000000     4.261000000    -0.819000000
C     0.283000000     4.536000000    -0.951000000
H    -0.265000000     4.843000000    -0.064000000
C    -0.358000000     4.316000000    -2.183000000
O    -1.771000000     4.476000000    -2.210000000
C    -2.617000000     3.324000000    -2.013000000
C    -3.817000000     3.653000000    -1.145000000
C    -3.944000000     4.833000000    -0.367000000
H    -3.147000000     5.567000000    -0.456000000
C    -4.858000000     2.747000000    -0.836000000
H    -4.795000000     1.831000000    -1.419000000
O    -3.084000000     2.752000000    -3.265000000
H    -1.961000000     2.588000000    -1.526000000
C     0.355000000     3.839000000    -3.267000000
C    -0.447000000     3.424000000    -4.575000000
H     0.314000000     3.494000000    -5.354000000
H    -1.231000000     4.138000000    -4.837000000
C    -1.042000000     2.010000000    -4.409000000
C    -2.263000000     1.724000000    -3.774000000
C    -2.697000000     0.444000000    -3.692000000
H    -3.605000000     0.237000000    -3.130000000
C    -1.949000000    -0.627000000    -4.224000000
O    -2.418000000    -1.905000000    -3.994000000
C    -1.738000000    -2.796000000    -2.964000000
H    -1.133000000    -2.156000000    -2.305000000
C    -2.743000000    -3.540000000    -2.050000000
C    -2.254000000    -4.726000000    -1.431000000
H    -1.382000000    -5.214000000    -1.859000000
C    -3.929000000    -2.972000000    -1.617000000
H    -4.427000000    -2.112000000    -2.057000000
C    -4.711000000    -3.550000000    -0.588000000
O    -5.772000000    -2.825000000    -0.134000000
C    -4.234000000    -4.716000000     0.016000000
H    -4.851000000    -5.205000000     0.766000000
C    -2.997000000    -5.272000000    -0.376000000
O    -2.599000000    -6.465000000     0.168000000
C    -1.316000000    -6.964000000     0.029000000
C    -0.364000000    -6.544000000     0.954000000
H    -0.611000000    -6.032000000     1.880000000
C    -0.964000000    -7.740000000    -1.022000000
H    -1.709000000    -7.994000000    -1.772000000
C     0.360000000    -8.230000000    -1.074000000
H     0.580000000    -8.921000000    -1.884000000
C     1.223000000    -7.984000000    -0.072000000
H     2.182000000    -8.497000000    -0.060000000
C     0.950000000    -7.057000000     0.931000000
O     1.779000000    -6.840000000     1.972000000
C     2.324000000    -5.560000000     2.160000000
C     2.351000000    -4.928000000     3.395000000
H     2.028000000    -5.323000000     4.355000000
C     2.699000000    -3.563000000     3.429000000
O     2.698000000    -2.848000000     4.639000000
C     3.439000000    -1.745000000     5.018000000
C     2.748000000    -0.524000000     5.169000000
H     1.719000000    -0.386000000     4.845000000
C     4.771000000    -1.834000000     5.364000000
H     5.315000000    -2.761000000     5.204000000
C     5.432000000    -0.716000000     5.801000000
H     6.501000000    -0.778000000     5.987000000
C     4.834000000     0.515000000     5.865000000
H     5.371000000     1.407000000     6.175000000
C     3.477000000     0.631000000     5.600000000
O     2.770000000     1.765000000     5.821000000
C     2.094000000     2.341000000     4.763000000
C     0.815000000     2.886000000     4.935000000
H     0.369000000     2.946000000     5.925000000
C     0.109000000     3.420000000     3.873000000
O    -1.172000000     3.910000000     3.981000000
C    -1.736000000     4.984000000     3.308000000
C    -3.044000000     4.900000000     2.789000000
H    -3.553000000     3.945000000     2.882000000
C    -1.094000000     6.216000000     3.324000000
H    -0.089000000     6.284000000     3.732000000
C    -1.709000000     7.350000000     2.754000000
H    -1.065000000     8.217000000     2.633000000
C    -2.994000000     7.266000000     2.190000000
H    -3.450000000     8.131000000     1.716000000
C    -3.639000000     6.033000000     2.309000000
O    -4.807000000     5.914000000     1.598000000
C    -4.939000000     5.025000000     0.612000000
C    -5.959000000     4.076000000     0.770000000
H    -6.742000000     4.210000000     1.512000000
C    -5.913000000     2.912000000     0.034000000
O    -6.629000000     1.804000000     0.407000000
C    -5.884000000     0.714000000     0.730000000
C    -4.853000000     0.806000000     1.670000000
H    -4.575000000     1.728000000     2.174000000
C    -4.236000000    -0.376000000     2.090000000
H    -3.658000000    -0.312000000     3.009000000
C    -4.437000000    -1.612000000     1.378000000
H    -3.937000000    -2.505000000     1.745000000
C    -5.538000000    -1.688000000     0.527000000
C    -6.285000000    -0.556000000     0.212000000
H    -6.992000000    -0.587000000    -0.613000000
C    -0.852000000     0.307000000     2.185000000
H    -1.054000000     1.185000000     2.793000000
C    -0.476000000     0.505000000     0.845000000
H    -0.438000000     1.526000000     0.477000000
C    -0.116000000    -0.578000000     0.053000000
H     0.172000000    -0.345000000    -0.959000000
C    -0.141000000    -1.861000000     0.576000000
H     0.071000000    -2.704000000    -0.077000000
C    -0.570000000    -2.038000000     1.850000000
H    -0.523000000    -3.091000000     2.117000000
C    -0.915000000    -1.006000000     2.710000000
C    -1.339000000    -1.186000000     4.197000000
O    -1.323000000    -2.332000000     4.649000000
O    -1.734000000    -0.276000000     4.878000000
O     0.203000000    -1.332000000    10.417000000
H     1.138000000    -1.128000000    10.408000000
H     0.068000000    -1.868000000     9.635000000
O    -3.369000000     1.805000000     4.631000000
H    -3.196000000     2.296000000     5.434000000
H    -2.543000000     1.362000000     4.439000000
O    -7.121000000    -1.237000000     3.862000000
H    -6.584000000    -0.454000000     3.981000000
H    -7.897000000    -0.927000000     3.395000000
O    -0.476000000    -3.060000000     8.690000000
H    -0.079000000    -3.255000000     7.841000000
H    -1.116000000    -2.374000000     8.504000000
O    -2.952000000    -4.435000000     3.872000000
H    -3.787000000    -4.004000000     4.053000000
H    -2.294000000    -3.850000000     4.248000000
O    -5.462000000    -3.056000000     4.168000000
H    -6.109000000    -2.357000000     4.076000000
H    -5.807000000    -3.612000000     4.867000000
O    -2.578000000    -0.838000000     8.626000000
H    -2.910000000    -1.339000000     7.881000000
H    -3.308000000    -0.820000000     9.246000000
O     0.417000000    -7.455000000     6.069000000
H    -0.261000000    -7.294000000     5.414000000
H    -0.020000000    -7.309000000     6.908000000
O    -6.062000000    -5.727000000     3.032000000
H    -6.809000000    -5.790000000     3.628000000
H    -5.948000000    -4.787000000     2.890000000
O    -1.133000000     0.670000000     7.331000000
H    -1.651000000     0.134000000     7.932000000
H    -1.412000000     0.390000000     6.459000000
O     1.608000000     0.164000000     7.865000000
H     2.032000000     1.011000000     7.726000000
H     0.685000000     0.323000000     7.670000000
O    -1.804000000    -6.944000000     4.028000000
H    -2.128000000    -6.052000000     3.906000000
H    -2.539000000    -7.503000000     3.775000000
O    -5.726000000     0.861000000     5.222000000
H    -6.319000000     1.372000000     4.671000000
H    -4.852000000     1.168000000     4.981000000
O    -1.528000000     3.412000000     7.744000000
H    -2.420000000     3.613000000     7.458000000
H    -1.403000000     2.492000000     7.511000000
O    -6.780000000    -1.366000000     6.721000000
H    -7.069000000    -1.373000000     5.809000000
H    -6.022000000    -0.781000000     6.727000000
O    -3.757000000    -4.737000000     7.000000000
H    -3.448000000    -5.000000000     6.133000000
H    -4.301000000    -5.469000000     7.293000000
O     0.376000000    -3.443000000     6.256000000
H    -0.359000000    -3.126000000     5.730000000
H     1.141000000    -3.329000000     5.692000000
O    -3.752000000    -1.561000000     6.190000000
H    -3.036000000    -1.269000000     5.625000000
H    -4.181000000    -2.256000000     5.691000000
O    -5.685000000     1.422000000     8.178000000
H    -6.193000000     2.179000000     7.887000000
H    -5.245000000     1.110000000     7.387000000
