215
-1437.25730
C     2.808000000    -2.630000000     2.371000000
H     3.319000000    -1.671000000     2.402000000
C     2.695000000    -3.259000000     1.121000000
C     1.973000000    -4.444000000     1.044000000
H     1.977000000    -5.009000000     0.116000000
C     3.159000000    -2.577000000    -0.128000000
O     4.413000000    -1.861000000     0.081000000
H     2.371000000    -1.855000000    -0.387000000
O     3.231000000    -3.491000000    -1.253000000
C     2.520000000    -3.044000000    -2.382000000
C     1.194000000    -3.397000000    -2.561000000
H     0.790000000    -4.158000000    -1.898000000
C     0.436000000    -2.995000000    -3.663000000
O    -0.853000000    -3.486000000    -3.745000000
C     0.961000000    -2.039000000    -4.467000000
C     0.065000000    -1.422000000    -5.524000000
H     0.700000000    -0.969000000    -6.288000000
C    -0.763000000    -0.292000000    -4.923000000
C    -0.257000000     0.998000000    -4.912000000
H     0.644000000     1.206000000    -5.483000000
H    -0.579000000    -2.121000000    -6.062000000
C     2.259000000    -1.521000000    -4.268000000
H     2.649000000    -0.711000000    -4.879000000
C     3.046000000    -2.076000000    -3.225000000
C     4.433000000    -1.449000000    -2.886000000
H     4.918000000    -1.082000000    -3.793000000
H     5.036000000    -2.244000000    -2.441000000
C     4.415000000    -0.274000000    -1.873000000
C     4.322000000     1.066000000    -2.283000000
H     4.184000000     1.366000000    -3.318000000
C     4.487000000    -0.607000000    -0.457000000
C     4.483000000     0.457000000     0.430000000
H     4.476000000     0.240000000     1.495000000
C     4.479000000     1.769000000     0.024000000
O     4.371000000     2.775000000     0.995000000
C     2.980000000     3.263000000     1.231000000
C     2.580000000     3.433000000     2.673000000
C     1.370000000     3.997000000     3.002000000
H     0.592000000     4.336000000     2.323000000
C     3.346000000     2.872000000     3.703000000
H     4.153000000     2.232000000     3.356000000
O     2.619000000     4.400000000     0.419000000
H     2.319000000     2.471000000     0.848000000
C     4.436000000     2.093000000    -1.371000000
C     4.167000000     3.571000000    -1.804000000
H     4.518000000     3.832000000    -2.804000000
H     4.719000000     4.239000000    -1.139000000
C     2.595000000     3.703000000    -1.885000000
C     1.852000000     3.593000000    -3.066000000
H     2.333000000     3.256000000    -3.981000000
C     1.895000000     4.164000000    -0.735000000
C     0.526000000     4.317000000    -0.600000000
H     0.116000000     4.633000000     0.356000000
C    -0.121000000     4.139000000    -1.831000000
O    -1.491000000     4.210000000    -1.798000000
C    -2.344000000     3.088000000    -1.758000000
C    -3.475000000     3.190000000    -0.797000000
C    -3.384000000     4.242000000     0.148000000
H    -2.602000000     4.996000000     0.132000000
C    -4.490000000     2.297000000    -0.670000000
H    -4.449000000     1.414000000    -1.303000000
O    -2.816000000     2.799000000    -3.092000000
H    -1.746000000     2.222000000    -1.441000000
C     0.482000000     3.730000000    -2.985000000
C    -0.332000000     3.477000000    -4.225000000
H     0.156000000     3.662000000    -5.184000000
H    -1.179000000     4.166000000    -4.251000000
C    -0.916000000     2.046000000    -4.292000000
C    -2.178000000     1.756000000    -3.735000000
C    -2.715000000     0.455000000    -3.668000000
H    -3.702000000     0.264000000    -3.255000000
C    -1.980000000    -0.534000000    -4.316000000
O    -2.497000000    -1.809000000    -4.180000000
C    -1.952000000    -2.698000000    -3.192000000
H    -1.508000000    -2.117000000    -2.369000000
C    -2.963000000    -3.551000000    -2.534000000
C    -2.729000000    -4.866000000    -2.128000000
H    -1.740000000    -5.254000000    -2.356000000
C    -4.143000000    -2.974000000    -2.151000000
H    -4.316000000    -1.950000000    -2.472000000
C    -5.132000000    -3.664000000    -1.421000000
O    -6.241000000    -2.981000000    -1.047000000
C    -4.866000000    -4.991000000    -1.084000000
H    -5.619000000    -5.570000000    -0.555000000
C    -3.625000000    -5.537000000    -1.374000000
O    -3.241000000    -6.707000000    -0.791000000
C    -1.976000000    -6.941000000    -0.445000000
C    -1.411000000    -6.273000000     0.648000000
H    -1.929000000    -5.546000000     1.269000000
C    -1.237000000    -7.762000000    -1.259000000
H    -1.725000000    -8.198000000    -2.128000000
C     0.061000000    -8.082000000    -0.896000000
H     0.697000000    -8.647000000    -1.573000000
C     0.676000000    -7.505000000     0.251000000
H     1.704000000    -7.647000000     0.574000000
C    -0.101000000    -6.551000000     0.927000000
O     0.416000000    -6.001000000     2.098000000
C     1.436000000    -5.082000000     2.193000000
C     1.491000000    -4.397000000     3.369000000
H     0.849000000    -4.753000000     4.170000000
C     2.262000000    -3.266000000     3.462000000
O     2.281000000    -2.542000000     4.617000000
C     3.273000000    -1.578000000     5.036000000
C     2.988000000    -0.319000000     5.514000000
H     1.952000000     0.002000000     5.590000000
C     4.631000000    -1.874000000     4.886000000
H     4.904000000    -2.853000000     4.503000000
C     5.679000000    -0.896000000     5.050000000
H     6.728000000    -1.111000000     4.868000000
C     5.276000000     0.409000000     5.414000000
H     6.052000000     1.169000000     5.453000000
C     3.994000000     0.716000000     5.674000000
O     3.592000000     2.031000000     5.911000000
C     2.949000000     2.807000000     4.994000000
C     1.750000000     3.445000000     5.325000000
H     1.417000000     3.415000000     6.359000000
C     0.957000000     3.995000000     4.319000000
O    -0.299000000     4.396000000     4.594000000
C    -1.091000000     5.322000000     3.813000000
C    -2.290000000     4.984000000     3.222000000
H    -2.721000000     4.022000000     3.487000000
C    -0.579000000     6.592000000     3.578000000
H     0.321000000     7.030000000     4.001000000
C    -1.260000000     7.473000000     2.778000000
H    -0.790000000     8.428000000     2.556000000
C    -2.506000000     7.184000000     2.267000000
H    -3.087000000     7.929000000     1.729000000
C    -2.991000000     5.945000000     2.481000000
O    -4.260000000     5.615000000     1.836000000
C    -4.423000000     4.477000000     1.022000000
C    -5.530000000     3.667000000     1.050000000
H    -6.289000000     3.835000000     1.810000000
C    -5.459000000     2.545000000     0.287000000
O    -6.338000000     1.501000000     0.551000000
C    -6.066000000     0.192000000     0.688000000
C    -5.326000000    -0.140000000     1.841000000
H    -5.034000000     0.667000000     2.509000000
C    -4.883000000    -1.450000000     2.099000000
H    -4.422000000    -1.769000000     3.030000000
C    -5.244000000    -2.375000000     1.085000000
H    -4.983000000    -3.421000000     1.226000000
C    -6.027000000    -2.084000000    -0.034000000
C    -6.525000000    -0.781000000    -0.208000000
H    -7.156000000    -0.509000000    -1.049000000
C    -0.234000000     0.356000000     1.926000000
H     0.337000000     0.999000000     2.590000000
C    -0.357000000     0.715000000     0.594000000
H     0.045000000     1.606000000     0.118000000
C    -1.071000000    -0.139000000    -0.223000000
H    -1.195000000     0.126000000    -1.277000000
C    -1.728000000    -1.283000000     0.257000000
H    -2.353000000    -1.882000000    -0.400000000
C    -1.606000000    -1.588000000     1.590000000
H    -2.136000000    -2.487000000     1.896000000
C    -0.803000000    -0.834000000     2.453000000
C    -0.809000000    -1.110000000     3.903000000
O    -1.531000000    -1.936000000     4.405000000
O    -0.288000000    -0.283000000     4.619000000
O     0.441000000    -1.971000000     9.549000000
H     0.741000000    -1.183000000    10.001000000
H     0.829000000    -1.908000000     8.676000000
O    -2.013000000     1.917000000     5.601000000
H    -1.656000000     2.397000000     6.348000000
H    -1.245000000     1.671000000     5.085000000
O    -1.067000000    -4.407000000     8.359000000
H    -0.693000000    -4.031000000     7.562000000
H    -0.562000000    -4.011000000     9.070000000
O    -2.715000000    -4.248000000     4.100000000
H    -3.529000000    -3.967000000     4.518000000
H    -2.132000000    -3.494000000     4.181000000
O    -5.862000000    -3.914000000     4.660000000
H    -6.531000000    -4.547000000     4.922000000
H    -6.042000000    -3.744000000     3.736000000
O    -3.360000000     0.175000000     7.776000000
H    -3.993000000    -0.390000000     7.332000000
H    -3.806000000     1.018000000     7.857000000
O     1.807000000    -5.241000000     7.361000000
H     1.045000000    -4.662000000     7.356000000
H     1.752000000    -5.703000000     8.197000000
O    -0.318000000     0.511000000     7.475000000
H    -1.255000000     0.453000000     7.664000000
H    -0.234000000     0.181000000     6.580000000
O     2.223000000     1.147000000     8.439000000
H     2.825000000     1.500000000     7.784000000
H     1.465000000     0.854000000     7.933000000
O    -0.748000000    -7.689000000     4.386000000
H    -0.242000000    -7.041000000     3.896000000
H    -1.651000000    -7.376000000     4.336000000
O    -3.266000000    -6.788000000     4.199000000
H    -2.900000000    -5.905000000     4.153000000
H    -4.214000000    -6.655000000     4.202000000
O    -4.679000000     2.670000000     5.201000000
H    -3.737000000     2.684000000     5.367000000
H    -4.875000000     1.753000000     5.009000000
O    -1.663000000     3.463000000     8.318000000
H    -1.579000000     3.263000000     9.251000000
H    -2.505000000     3.912000000     8.245000000
O    -6.275000000    -1.089000000     5.937000000
H    -6.819000000    -1.488000000     5.258000000
H    -5.392000000    -1.091000000     5.567000000
O    -4.174000000    -4.290000000     8.133000000
H    -3.299000000    -4.111000000     8.477000000
H    -4.130000000    -5.196000000     7.828000000
O    -1.943000000    -0.478000000    10.011000000
H    -2.356000000    -0.409000000     9.150000000
H    -1.289000000    -1.170000000     9.908000000
O     0.298000000    -2.849000000     6.319000000
H     1.087000000    -2.791000000     5.779000000
H    -0.385000000    -2.437000000     5.790000000
O    -3.797000000    -0.322000000     4.796000000
H    -3.392000000     0.434000000     5.222000000
H    -3.070000000    -0.922000000     4.631000000
O    -5.501000000     2.167000000     7.914000000
H    -5.058000000     2.551000000     7.157000000
H    -5.748000000     2.918000000     8.453000000
