215
-1453.60646
C    -1.302000000    -0.322000000    -5.250000000
H    -1.803000000    -1.280000000    -5.138000000
C    -0.017000000    -0.094000000    -4.850000000
C     0.542000000     1.196000000    -4.847000000
H     1.508000000     1.352000000    -4.374000000
C     0.711000000    -1.215000000    -4.099000000
O     0.368000000    -2.539000000    -4.563000000
H     0.405000000    -1.196000000    -3.042000000
O     2.145000000    -1.213000000    -4.326000000
C     2.974000000    -1.427000000    -3.272000000
C     3.416000000    -0.262000000    -2.551000000
H     3.162000000     0.734000000    -2.905000000
C     4.134000000    -0.397000000    -1.433000000
O     4.521000000     0.749000000    -0.882000000
C     4.405000000    -1.649000000    -0.914000000
C     5.191000000    -1.738000000     0.380000000
H     5.877000000    -2.563000000     0.580000000
C     4.320000000    -1.535000000     1.572000000
C     3.737000000    -2.537000000     2.285000000
H     3.904000000    -3.575000000     2.006000000
H     5.877000000    -0.895000000     0.491000000
C     4.021000000    -2.792000000    -1.563000000
H     4.384000000    -3.792000000    -1.342000000
C     3.303000000    -2.680000000    -2.747000000
C     2.618000000    -3.929000000    -3.285000000
H     3.039000000    -4.827000000    -2.829000000
H     2.577000000    -4.074000000    -4.367000000
C     1.127000000    -4.069000000    -2.873000000
C     0.858000000    -4.706000000    -1.672000000
H     1.669000000    -5.138000000    -1.092000000
C     0.091000000    -3.415000000    -3.554000000
C    -1.237000000    -3.519000000    -3.065000000
H    -2.058000000    -2.962000000    -3.509000000
C    -1.448000000    -4.141000000    -1.883000000
O    -2.724000000    -3.934000000    -1.294000000
C    -2.813000000    -2.897000000    -0.242000000
C    -4.036000000    -1.987000000    -0.295000000
C    -4.532000000    -1.398000000     0.892000000
H    -4.209000000    -1.595000000     1.911000000
C    -4.592000000    -1.626000000    -1.528000000
H    -4.186000000    -2.112000000    -2.412000000
O    -2.821000000    -3.586000000     0.911000000
H    -1.929000000    -2.247000000    -0.311000000
C    -0.406000000    -4.747000000    -1.180000000
C    -0.674000000    -5.431000000     0.135000000
H     0.075000000    -6.219000000     0.242000000
H    -1.662000000    -5.894000000     0.132000000
C    -0.504000000    -4.412000000     1.273000000
C     0.693000000    -4.291000000     2.001000000
H     1.616000000    -4.769000000     1.683000000
C    -1.585000000    -3.587000000     1.597000000
C    -1.514000000    -2.827000000     2.780000000
H    -2.387000000    -2.342000000     3.209000000
C    -0.304000000    -2.715000000     3.431000000
O    -0.306000000    -1.873000000     4.517000000
C     0.408000000    -0.647000000     4.352000000
C    -0.322000000     0.566000000     5.012000000
C    -1.759000000     0.663000000     4.901000000
H    -2.302000000    -0.201000000     4.527000000
C     0.426000000     1.700000000     5.444000000
H     1.507000000     1.679000000     5.551000000
O     1.760000000    -0.743000000     4.801000000
H     0.442000000    -0.364000000     3.289000000
C     0.794000000    -3.491000000     3.116000000
C     2.096000000    -3.453000000     3.920000000
H     2.752000000    -4.325000000     3.879000000
H     1.883000000    -3.253000000     4.972000000
C     2.880000000    -2.306000000     3.339000000
C     2.667000000    -0.980000000     3.797000000
C     3.395000000     0.021000000     3.223000000
H     3.221000000     1.030000000     3.590000000
C     4.128000000    -0.201000000     2.074000000
O     4.599000000     0.934000000     1.507000000
C     3.898000000     1.254000000     0.256000000
H     2.880000000     0.839000000     0.298000000
C     3.641000000     2.769000000     0.095000000
C     3.643000000     3.416000000    -1.150000000
H     3.885000000     2.808000000    -2.018000000
C     3.098000000     3.478000000     1.180000000
H     2.934000000     2.892000000     2.080000000
C     2.833000000     4.850000000     1.104000000
O     2.271000000     5.602000000     2.129000000
C     3.042000000     5.489000000    -0.085000000
H     2.772000000     6.523000000    -0.286000000
C     3.335000000     4.765000000    -1.228000000
O     3.366000000     5.446000000    -2.421000000
C     3.086000000     4.827000000    -3.606000000
C     1.830000000     4.462000000    -3.887000000
H     1.074000000     4.685000000    -3.139000000
C     4.136000000     4.534000000    -4.365000000
H     5.159000000     4.702000000    -4.039000000
C     3.877000000     4.124000000    -5.705000000
H     4.768000000     3.975000000    -6.310000000
C     2.597000000     3.710000000    -5.971000000
H     2.307000000     3.261000000    -6.917000000
C     1.572000000     3.772000000    -5.020000000
O     0.247000000     3.507000000    -5.309000000
C    -0.318000000     2.250000000    -5.341000000
C    -1.533000000     1.980000000    -5.890000000
H    -2.087000000     2.777000000    -6.380000000
C    -2.049000000     0.678000000    -5.789000000
O    -3.175000000     0.404000000    -6.395000000
C    -4.202000000    -0.313000000    -5.781000000
C    -4.713000000     0.001000000    -4.514000000
H    -4.387000000     0.931000000    -4.053000000
C    -4.720000000    -1.442000000    -6.473000000
H    -4.319000000    -1.672000000    -7.457000000
C    -5.587000000    -2.318000000    -5.850000000
H    -5.839000000    -3.238000000    -6.372000000
C    -6.024000000    -1.965000000    -4.561000000
H    -6.712000000    -2.643000000    -4.062000000
C    -5.688000000    -0.758000000    -3.963000000
O    -6.243000000    -0.376000000    -2.769000000
C    -5.685000000    -0.725000000    -1.571000000
C    -6.186000000    -0.169000000    -0.427000000
H    -6.944000000     0.610000000    -0.451000000
C    -5.623000000    -0.550000000     0.787000000
O    -6.288000000     0.067000000     1.826000000
C    -5.859000000     0.004000000     3.111000000
C    -4.981000000     1.003000000     3.610000000
H    -4.694000000     1.853000000     2.996000000
C    -6.300000000    -0.978000000     3.986000000
H    -7.029000000    -1.684000000     3.596000000
C    -5.945000000    -0.952000000     5.337000000
H    -6.274000000    -1.697000000     6.056000000
C    -5.118000000     0.105000000     5.836000000
H    -4.885000000     0.185000000     6.895000000
C    -4.679000000     1.066000000     4.952000000
O    -3.749000000     2.047000000     5.406000000
C    -2.402000000     1.779000000     5.427000000
C    -1.670000000     2.867000000     5.857000000
H    -2.172000000     3.740000000     6.265000000
C    -0.287000000     2.811000000     5.873000000
O     0.402000000     4.001000000     6.226000000
C     1.557000000     4.432000000     5.516000000
C     2.875000000     4.401000000     6.032000000
H     3.015000000     4.248000000     7.099000000
C     3.949000000     4.875000000     5.314000000
H     4.930000000     4.967000000     5.772000000
C     3.728000000     5.297000000     4.008000000
H     4.566000000     5.512000000     3.350000000
C     2.457000000     5.289000000     3.456000000
C     1.407000000     4.950000000     4.246000000
H     0.450000000     4.981000000     3.730000000
C    -2.007000000     1.538000000     0.600000000
H    -2.888000000     1.844000000     1.158000000
C    -1.424000000     0.246000000     0.586000000
H    -1.676000000    -0.577000000     1.250000000
C    -0.320000000     0.022000000    -0.199000000
H     0.246000000    -0.910000000    -0.063000000
C     0.281000000     1.018000000    -0.939000000
H     1.167000000     0.802000000    -1.531000000
C    -0.411000000     2.283000000    -1.012000000
H     0.012000000     2.984000000    -1.727000000
C    -1.475000000     2.520000000    -0.173000000
C    -2.177000000     3.863000000    -0.214000000
O    -2.045000000     4.527000000    -1.261000000
O    -2.966000000     4.242000000     0.656000000
O    -8.326000000     2.622000000     1.266000000
H    -7.443000000     2.869000000     0.992000000
H    -8.795000000     2.460000000     0.448000000
O    -3.416000000     7.011000000     5.380000000
H    -3.117000000     6.334000000     4.773000000
H    -3.339000000     6.608000000     6.244000000
O    -5.919000000     5.425000000    -4.101000000
H    -6.324000000     4.735000000    -3.575000000
H    -5.245000000     5.796000000    -3.531000000
O    -7.624000000     4.623000000     3.128000000
H    -6.820000000     4.448000000     2.639000000
H    -8.259000000     3.999000000     2.776000000
O    -3.987000000     6.205000000    -2.379000000
H    -3.703000000     5.488000000    -1.813000000
H    -3.319000000     6.881000000    -2.264000000
O    -0.412000000     6.443000000    -1.830000000
H    -0.317000000     6.314000000    -2.773000000
H    -0.840000000     5.645000000    -1.521000000
O     1.734000000     8.554000000    -2.095000000
H     1.618000000     8.794000000    -3.015000000
H     1.036000000     7.922000000    -1.922000000
O    -2.530000000     6.840000000     0.383000000
H    -2.305000000     6.941000000    -0.542000000
H    -2.373000000     5.914000000     0.568000000
O     0.242000000     7.710000000     2.265000000
H     0.300000000     6.778000000     2.478000000
H     1.006000000     7.878000000     1.713000000
O    -5.587000000     6.670000000     0.335000000
H    -5.623000000     7.086000000    -0.526000000
H    -4.656000000     6.667000000     0.560000000
O    -2.619000000     4.041000000    -3.863000000
H    -1.898000000     3.414000000    -3.917000000
H    -2.531000000     4.432000000    -2.993000000
O    -4.025000000     4.775000000    -6.018000000
H    -4.759000000     5.119000000    -5.511000000
H    -3.325000000     4.655000000    -5.376000000
O    -0.609000000     9.474000000    -0.218000000
H    -0.295000000     9.620000000     0.674000000
H    -0.166000000     8.674000000    -0.500000000
O    -5.802000000     4.028000000     0.707000000
H    -6.025000000     4.953000000     0.602000000
H    -4.846000000     4.007000000     0.672000000
O    -3.284000000     9.451000000     1.953000000
H    -2.837000000     8.822000000     1.388000000
H    -3.450000000     8.970000000     2.764000000
O    -0.381000000     6.593000000    -4.602000000
H    -1.187000000     6.823000000    -5.065000000
H     0.293000000     6.589000000    -5.282000000
O    -2.691000000     4.953000000     3.349000000
H    -2.807000000     4.944000000     2.399000000
H    -2.805000000     4.040000000     3.613000000
O    -3.075000000     8.867000000    -1.663000000
H    -2.399000000     9.038000000    -1.007000000
H    -2.767000000     9.318000000    -2.449000000
O    -7.422000000     3.412000000    -2.955000000
H    -7.733000000     2.508000000    -2.985000000
H    -8.210000000     3.932000000    -2.798000000
