215
-1455.35055
C     4.236000000    -2.223000000     2.227000000
H     4.857000000    -1.447000000     1.789000000
C     3.348000000    -2.928000000     1.425000000
C     2.533000000    -3.904000000     1.985000000
H     1.783000000    -4.492000000     1.462000000
C     3.345000000    -2.559000000    -0.028000000
O     4.475000000    -1.803000000    -0.477000000
H     2.460000000    -1.964000000    -0.300000000
O     3.196000000    -3.802000000    -0.776000000
C     2.231000000    -3.703000000    -1.782000000
C     0.962000000    -4.192000000    -1.520000000
H     0.776000000    -4.612000000    -0.535000000
C    -0.108000000    -4.071000000    -2.424000000
O    -1.353000000    -4.446000000    -1.998000000
C     0.131000000    -3.366000000    -3.656000000
C    -1.012000000    -3.041000000    -4.630000000
H    -0.671000000    -2.864000000    -5.652000000
C    -1.881000000    -1.828000000    -4.248000000
C    -1.575000000    -0.592000000    -4.814000000
H    -0.678000000    -0.489000000    -5.419000000
H    -1.635000000    -3.938000000    -4.616000000
C     1.390000000    -2.892000000    -4.002000000
H     1.463000000    -2.313000000    -4.919000000
C     2.452000000    -3.090000000    -3.071000000
C     3.803000000    -2.475000000    -3.371000000
H     3.986000000    -2.420000000    -4.446000000
H     4.653000000    -3.075000000    -3.039000000
C     3.763000000    -1.105000000    -2.732000000
C     3.315000000    -0.013000000    -3.555000000
H     2.954000000    -0.323000000    -4.532000000
C     4.186000000    -0.808000000    -1.444000000
C     4.244000000     0.531000000    -0.971000000
H     4.715000000     0.762000000    -0.019000000
C     3.745000000     1.523000000    -1.815000000
O     3.645000000     2.765000000    -1.271000000
C     2.352000000     3.199000000    -0.878000000
C     2.271000000     3.732000000     0.581000000
C     1.387000000     4.798000000     0.894000000
H     0.847000000     5.304000000     0.098000000
C     3.052000000     3.081000000     1.587000000
H     3.749000000     2.280000000     1.356000000
O     2.021000000     4.160000000    -1.844000000
H     1.780000000     2.262000000    -0.940000000
C     3.305000000     1.310000000    -3.105000000
C     2.981000000     2.520000000    -3.967000000
H     3.101000000     2.226000000    -5.011000000
H     3.648000000     3.365000000    -3.785000000
C     1.524000000     2.872000000    -3.866000000
C     0.509000000     2.376000000    -4.729000000
H     0.850000000     1.595000000    -5.404000000
C     1.183000000     3.694000000    -2.806000000
C    -0.199000000     3.929000000    -2.534000000
H    -0.494000000     4.485000000    -1.648000000
C    -1.191000000     3.353000000    -3.296000000
O    -2.513000000     3.411000000    -2.846000000
C    -2.982000000     2.307000000    -2.088000000
C    -3.819000000     2.871000000    -0.941000000
C    -3.606000000     4.117000000    -0.411000000
H    -2.864000000     4.801000000    -0.814000000
C    -4.754000000     2.110000000    -0.379000000
H    -4.906000000     1.089000000    -0.721000000
O    -3.843000000     1.571000000    -2.953000000
H    -2.208000000     1.661000000    -1.648000000
C    -0.860000000     2.567000000    -4.396000000
C    -1.920000000     1.776000000    -5.163000000
H    -1.664000000     1.596000000    -6.209000000
H    -2.796000000     2.421000000    -5.258000000
C    -2.304000000     0.537000000    -4.454000000
C    -3.355000000     0.443000000    -3.570000000
C    -3.549000000    -0.718000000    -2.918000000
H    -4.293000000    -0.824000000    -2.133000000
C    -2.841000000    -1.899000000    -3.240000000
O    -3.135000000    -3.049000000    -2.478000000
C    -2.243000000    -3.460000000    -1.436000000
H    -1.605000000    -2.600000000    -1.187000000
C    -2.892000000    -3.991000000    -0.233000000
C    -2.355000000    -5.000000000     0.635000000
H    -1.396000000    -5.465000000     0.423000000
C    -4.068000000    -3.393000000     0.169000000
H    -4.411000000    -2.486000000    -0.322000000
C    -4.648000000    -3.754000000     1.376000000
O    -5.688000000    -2.992000000     1.910000000
C    -4.278000000    -4.904000000     2.071000000
H    -4.737000000    -5.223000000     3.003000000
C    -3.082000000    -5.429000000     1.721000000
O    -2.548000000    -6.390000000     2.517000000
C    -1.178000000    -6.651000000     2.671000000
C    -0.415000000    -5.793000000     3.376000000
H    -0.757000000    -4.926000000     3.936000000
C    -0.605000000    -7.654000000     1.879000000
H    -1.303000000    -8.247000000     1.293000000
C     0.788000000    -7.861000000     1.871000000
H     1.280000000    -8.587000000     1.229000000
C     1.590000000    -6.921000000     2.551000000
H     2.674000000    -6.956000000     2.626000000
C     0.969000000    -5.907000000     3.315000000
O     1.750000000    -4.968000000     3.951000000
C     2.611000000    -4.112000000     3.368000000
C     3.450000000    -3.398000000     4.168000000
H     3.527000000    -3.540000000     5.243000000
C     4.310000000    -2.477000000     3.607000000
O     5.136000000    -1.638000000     4.436000000
C     5.424000000    -0.316000000     4.056000000
C     4.465000000     0.652000000     4.154000000
H     3.434000000     0.492000000     4.460000000
C     6.733000000     0.033000000     3.669000000
H     7.465000000    -0.771000000     3.653000000
C     7.047000000     1.369000000     3.438000000
H     8.042000000     1.652000000     3.102000000
C     6.079000000     2.377000000     3.481000000
H     6.280000000     3.397000000     3.163000000
C     4.772000000     1.990000000     3.780000000
O     3.749000000     2.888000000     3.960000000
C     2.951000000     3.456000000     2.925000000
C     2.040000000     4.477000000     3.222000000
H     1.987000000     4.815000000     4.254000000
C     1.361000000     5.170000000     2.218000000
O     0.598000000     6.241000000     2.537000000
C    -0.587000000     6.762000000     2.008000000
C    -1.783000000     5.984000000     1.955000000
H    -1.858000000     5.064000000     2.530000000
C    -0.623000000     8.085000000     1.594000000
H     0.297000000     8.657000000     1.683000000
C    -1.745000000     8.569000000     1.007000000
H    -1.860000000     9.612000000     0.722000000
C    -2.874000000     7.733000000     0.776000000
H    -3.782000000     8.141000000     0.338000000
C    -2.930000000     6.484000000     1.275000000
O    -4.195000000     5.855000000     1.203000000
C    -4.427000000     4.678000000     0.574000000
C    -5.451000000     3.885000000     1.044000000
H    -6.087000000     4.138000000     1.889000000
C    -5.598000000     2.570000000     0.629000000
O    -6.395000000     1.733000000     1.394000000
C    -5.920000000     0.665000000     2.059000000
C    -5.071000000     0.949000000     3.129000000
H    -4.903000000     1.990000000     3.395000000
C    -4.347000000    -0.099000000     3.668000000
H    -3.644000000     0.051000000     4.483000000
C    -4.520000000    -1.433000000     3.265000000
H    -3.920000000    -2.217000000     3.721000000
C    -5.378000000    -1.672000000     2.231000000
C    -6.145000000    -0.680000000     1.622000000
H    -6.708000000    -0.820000000     0.703000000
C     0.194000000     0.804000000     3.826000000
H     0.705000000     1.655000000     4.268000000
C     0.056000000     0.699000000     2.417000000
H     0.305000000     1.536000000     1.771000000
C    -0.589000000    -0.418000000     1.888000000
H    -0.637000000    -0.463000000     0.817000000
C    -1.150000000    -1.427000000     2.681000000
H    -1.699000000    -2.238000000     2.211000000
C    -0.943000000    -1.273000000     4.071000000
H    -1.340000000    -2.046000000     4.724000000
C    -0.337000000    -0.185000000     4.633000000
C    -0.157000000    -0.184000000     6.110000000
O    -0.418000000    -1.182000000     6.857000000
O     0.196000000     0.870000000     6.596000000
O     0.547000000     4.904000000     6.544000000
H     0.053000000     5.655000000     6.870000000
H    -0.093000000     4.193000000     6.506000000
O     2.120000000    -0.859000000     9.810000000
H     1.546000000    -1.610000000     9.961000000
H     2.436000000    -0.620000000    10.682000000
O    -0.642000000    -3.747000000     6.900000000
H    -1.377000000    -4.152000000     7.360000000
H    -0.913000000    -2.838000000     6.769000000
O    -4.031000000     0.941000000     6.994000000
H    -4.475000000     1.256000000     6.206000000
H    -3.238000000     1.475000000     7.051000000
O     2.560000000     2.917000000    10.035000000
H     1.973000000     2.233000000     9.715000000
H     3.313000000     2.883000000     9.445000000
O     1.514000000    -5.182000000     6.912000000
H     0.780000000    -4.678000000     6.561000000
H     1.967000000    -4.571000000     7.494000000
O     2.778000000     1.375000000     7.009000000
H     1.839000000     1.541000000     6.920000000
H     2.863000000     0.426000000     6.914000000
O    -1.222000000    -1.709000000     9.521000000
H    -0.435000000    -2.125000000     9.873000000
H    -1.032000000    -1.583000000     8.592000000
O    -4.185000000     3.545000000     5.624000000
H    -3.917000000     4.428000000     5.368000000
H    -3.376000000     3.034000000     5.602000000
O    -1.600000000     2.693000000     6.734000000
H    -1.631000000     2.746000000     7.689000000
H    -0.912000000     2.053000000     6.552000000
O     0.988000000    -3.409000000    10.182000000
H     1.877000000    -3.753000000    10.270000000
H     0.474000000    -4.153000000     9.868000000
O    -3.604000000    -2.111000000     6.526000000
H    -3.233000000    -1.252000000     6.729000000
H    -3.804000000    -2.493000000     7.381000000
O    -3.949000000    -2.796000000     9.890000000
H    -4.283000000    -2.698000000    10.781000000
H    -3.016000000    -2.593000000     9.960000000
O    -1.308000000     3.189000000     9.269000000
H    -1.087000000     3.867000000     9.906000000
H    -0.673000000     2.491000000     9.432000000
O     5.068000000    -2.402000000     7.324000000
H     4.652000000    -3.245000000     7.502000000
H     4.351000000    -1.835000000     7.040000000
O     2.206000000    -1.553000000     7.192000000
H     2.175000000    -1.472000000     8.145000000
H     1.290000000    -1.520000000     6.918000000
O     0.624000000     1.377000000     9.139000000
H     0.491000000     1.216000000     8.205000000
H     1.070000000     0.592000000     9.456000000
O    -3.005000000     0.038000000    10.598000000
H    -3.696000000    -0.602000000    10.425000000
H    -2.299000000    -0.204000000     9.997000000
O     5.368000000     2.458000000     7.811000000
H     4.648000000     2.029000000     7.348000000
H     5.098000000     3.374000000     7.878000000
