215
-1438.09590
C     3.394000000    -2.609000000     1.806000000
H     3.494000000    -1.528000000     1.760000000
C     2.969000000    -3.384000000     0.720000000
C     2.586000000    -4.757000000     0.950000000
H     2.127000000    -5.285000000     0.118000000
C     2.959000000    -2.685000000    -0.693000000
O     4.266000000    -1.973000000    -0.925000000
H     2.117000000    -1.979000000    -0.654000000
O     2.876000000    -3.593000000    -1.713000000
C     1.928000000    -3.486000000    -2.685000000
C     0.748000000    -4.130000000    -2.474000000
H     0.669000000    -4.835000000    -1.651000000
C    -0.386000000    -3.668000000    -3.216000000
O    -1.572000000    -4.096000000    -2.719000000
C    -0.243000000    -2.729000000    -4.243000000
C    -1.436000000    -2.363000000    -5.069000000
H    -1.092000000    -2.129000000    -6.079000000
C    -2.157000000    -1.176000000    -4.420000000
C    -1.798000000     0.127000000    -4.825000000
H    -0.957000000     0.177000000    -5.513000000
H    -2.055000000    -3.256000000    -5.170000000
C     1.019000000    -2.266000000    -4.567000000
H     1.079000000    -1.601000000    -5.425000000
C     2.102000000    -2.527000000    -3.725000000
C     3.440000000    -1.887000000    -3.924000000
H     3.538000000    -1.639000000    -4.983000000
H     4.139000000    -2.707000000    -3.745000000
C     3.718000000    -0.711000000    -3.019000000
C     3.575000000     0.520000000    -3.572000000
H     3.309000000     0.751000000    -4.600000000
C     4.139000000    -0.799000000    -1.640000000
C     4.205000000     0.390000000    -0.838000000
H     4.324000000     0.275000000     0.237000000
C     3.919000000     1.595000000    -1.396000000
O     3.873000000     2.720000000    -0.555000000
C     2.563000000     3.233000000    -0.066000000
C     2.639000000     3.632000000     1.382000000
C     1.925000000     4.792000000     1.814000000
H     1.409000000     5.431000000     1.102000000
C     3.172000000     2.748000000     2.304000000
H     3.653000000     1.847000000     1.933000000
O     2.155000000     4.296000000    -0.935000000
H     1.788000000     2.464000000    -0.196000000
C     3.713000000     1.687000000    -2.775000000
C     3.323000000     2.996000000    -3.322000000
H     3.529000000     3.069000000    -4.392000000
H     3.884000000     3.820000000    -2.877000000
C     1.843000000     3.348000000    -3.163000000
C     0.891000000     2.899000000    -4.091000000
H     1.276000000     2.435000000    -4.996000000
C     1.408000000     4.036000000    -2.063000000
C     0.033000000     4.256000000    -1.871000000
H    -0.272000000     4.565000000    -0.874000000
C    -0.968000000     3.815000000    -2.759000000
O    -2.226000000     3.969000000    -2.269000000
C    -2.966000000     2.869000000    -1.671000000
C    -3.783000000     3.421000000    -0.475000000
C    -3.363000000     4.611000000     0.201000000
H    -2.592000000     5.302000000    -0.132000000
C    -4.770000000     2.614000000     0.103000000
H    -5.212000000     1.776000000    -0.430000000
O    -3.782000000     2.194000000    -2.670000000
H    -2.365000000     2.079000000    -1.197000000
C    -0.514000000     3.028000000    -3.845000000
C    -1.559000000     2.580000000    -4.794000000
H    -1.109000000     2.400000000    -5.772000000
H    -2.324000000     3.346000000    -4.936000000
C    -2.211000000     1.320000000    -4.277000000
C    -3.276000000     1.209000000    -3.344000000
C    -3.653000000    -0.041000000    -2.939000000
H    -4.436000000    -0.025000000    -2.186000000
C    -3.081000000    -1.199000000    -3.400000000
O    -3.487000000    -2.473000000    -2.823000000
C    -2.463000000    -3.122000000    -2.059000000
H    -1.732000000    -2.413000000    -1.644000000
C    -3.025000000    -3.655000000    -0.742000000
C    -2.578000000    -4.842000000    -0.189000000
H    -1.723000000    -5.349000000    -0.627000000
C    -4.087000000    -2.941000000    -0.094000000
H    -4.423000000    -1.979000000    -0.472000000
C    -4.646000000    -3.494000000     1.120000000
O    -5.690000000    -2.920000000     1.747000000
C    -4.179000000    -4.683000000     1.671000000
H    -4.631000000    -5.091000000     2.572000000
C    -3.103000000    -5.393000000     0.953000000
O    -2.606000000    -6.508000000     1.643000000
C    -1.342000000    -7.006000000     1.453000000
C    -0.181000000    -6.592000000     2.145000000
H    -0.228000000    -5.856000000     2.943000000
C    -1.190000000    -7.970000000     0.399000000
H    -2.140000000    -8.205000000    -0.075000000
C     0.033000000    -8.334000000    -0.041000000
H     0.140000000    -9.047000000    -0.855000000
C     1.162000000    -7.881000000     0.639000000
H     2.175000000    -8.169000000     0.370000000
C     1.082000000    -7.015000000     1.735000000
O     2.198000000    -6.606000000     2.438000000
C     2.710000000    -5.272000000     2.227000000
C     3.116000000    -4.471000000     3.249000000
H     3.056000000    -4.953000000     4.222000000
C     3.444000000    -3.161000000     3.090000000
O     3.763000000    -2.394000000     4.197000000
C     4.513000000    -1.251000000     4.067000000
C     3.898000000    -0.045000000     4.474000000
H     2.861000000    -0.002000000     4.794000000
C     5.784000000    -1.163000000     3.472000000
H     6.325000000    -2.052000000     3.161000000
C     6.405000000     0.125000000     3.305000000
H     7.386000000     0.218000000     2.846000000
C     5.766000000     1.306000000     3.683000000
H     6.151000000     2.322000000     3.658000000
C     4.496000000     1.146000000     4.264000000
O     3.672000000     2.216000000     4.582000000
C     3.118000000     3.091000000     3.670000000
C     2.427000000     4.195000000     4.159000000
H     2.501000000     4.423000000     5.219000000
C     1.822000000     4.994000000     3.218000000
O     1.165000000     6.088000000     3.722000000
C     0.071000000     6.596000000     3.024000000
C    -1.158000000     5.945000000     2.937000000
H    -1.205000000     4.987000000     3.449000000
C     0.207000000     7.917000000     2.475000000
H     1.167000000     8.425000000     2.503000000
C    -0.871000000     8.468000000     1.816000000
H    -0.868000000     9.467000000     1.388000000
C    -2.021000000     7.696000000     1.578000000
H    -2.837000000     8.111000000     0.991000000
C    -2.255000000     6.468000000     2.230000000
O    -3.558000000     5.905000000     2.274000000
C    -3.913000000     4.890000000     1.463000000
C    -4.846000000     3.973000000     1.994000000
H    -5.257000000     4.282000000     2.951000000
C    -5.175000000     2.790000000     1.406000000
O    -6.015000000     1.895000000     2.026000000
C    -5.490000000     0.697000000     2.538000000
C    -4.519000000     0.677000000     3.584000000
H    -4.120000000     1.552000000     4.092000000
C    -4.239000000    -0.546000000     4.148000000
H    -3.525000000    -0.581000000     4.967000000
C    -4.618000000    -1.754000000     3.545000000
H    -4.313000000    -2.697000000     3.991000000
C    -5.392000000    -1.724000000     2.377000000
C    -5.887000000    -0.493000000     1.943000000
H    -6.578000000    -0.407000000     1.108000000
C    -1.018000000    -0.238000000     2.893000000
H    -1.494000000     0.341000000     3.680000000
C    -1.125000000     0.257000000     1.602000000
H    -1.543000000     1.225000000     1.337000000
C    -0.728000000    -0.558000000     0.538000000
H    -0.810000000    -0.260000000    -0.525000000
C    -0.212000000    -1.815000000     0.742000000
H     0.033000000    -2.405000000    -0.138000000
C    -0.060000000    -2.307000000     1.995000000
H     0.323000000    -3.319000000     2.097000000
C    -0.461000000    -1.543000000     3.129000000
C    -0.508000000    -2.180000000     4.477000000
O    -0.220000000    -3.343000000     4.673000000
O    -0.881000000    -1.544000000     5.478000000
O    -4.956000000    -1.892000000     7.993000000
H    -4.538000000    -2.491000000     7.374000000
H    -5.894000000    -2.005000000     7.839000000
O     0.866000000     0.708000000     6.799000000
H    -0.090000000     0.719000000     6.758000000
H     1.145000000     0.675000000     5.884000000
O    -0.480000000    -5.580000000     6.009000000
H    -0.792000000    -5.218000000     6.838000000
H    -0.697000000    -4.912000000     5.359000000
O    -1.539000000    -7.963000000     4.588000000
H    -1.503000000    -7.190000000     5.152000000
H    -0.798000000    -8.500000000     4.870000000
O     2.273000000    -8.572000000     5.123000000
H     3.118000000    -8.486000000     4.681000000
H     2.036000000    -7.676000000     5.362000000
O    -1.328000000    -4.490000000     8.650000000
H    -1.329000000    -4.125000000     9.534000000
H    -2.213000000    -4.835000000     8.532000000
O    -1.712000000     2.772000000     4.978000000
H    -2.637000000     3.007000000     4.905000000
H    -1.702000000     2.022000000     5.573000000
O    -3.482000000    -5.857000000     7.781000000
H    -4.021000000    -6.529000000     7.363000000
H    -4.057000000    -5.465000000     8.439000000
O    -3.759000000    -5.761000000     4.709000000
H    -3.848000000    -4.989000000     5.268000000
H    -3.077000000    -5.523000000     4.080000000
O    -1.618000000    -2.971000000    10.953000000
H    -0.701000000    -2.708000000    11.026000000
H    -2.023000000    -2.281000000    10.427000000
O    -1.788000000     0.684000000     6.641000000
H    -1.717000000    -0.202000000     6.285000000
H    -2.712000000     0.774000000     6.876000000
O    -1.281000000     1.948000000     9.156000000
H    -2.041000000     2.521000000     9.255000000
H    -1.271000000     1.723000000     8.225000000
O     3.517000000     1.268000000     7.439000000
H     2.583000000     1.137000000     7.601000000
H     3.841000000     0.403000000     7.189000000
O     4.025000000    -3.828000000     6.978000000
H     3.256000000    -3.258000000     6.977000000
H     4.696000000    -3.324000000     7.439000000
O     1.554000000    -2.536000000     7.127000000
H     1.199000000    -1.673000000     7.342000000
H     1.073000000    -2.805000000     6.345000000
O    -3.038000000    -3.478000000     6.112000000
H    -2.267000000    -3.000000000     5.809000000
H    -2.747000000    -3.921000000     6.910000000
O     1.294000000    -3.692000000     9.913000000
H     1.049000000    -3.535000000     9.001000000
H     1.551000000    -4.614000000     9.938000000
O     2.215000000    -6.070000000     6.463000000
H     1.340000000    -5.873000000     6.130000000
H     2.643000000    -5.217000000     6.533000000
O    -3.386000000    -0.905000000     9.864000000
H    -3.707000000    -0.149000000    10.356000000
H    -3.990000000    -0.983000000     9.125000000
