215
-1456.16651
C     3.756000000    -2.337000000     2.341000000
H     4.254000000    -1.422000000     2.031000000
C     3.267000000    -3.200000000     1.339000000
C     2.579000000    -4.344000000     1.745000000
H     2.128000000    -4.986000000     0.993000000
C     3.142000000    -2.729000000    -0.110000000
O     4.330000000    -2.098000000    -0.518000000
H     2.280000000    -2.059000000    -0.250000000
O     3.068000000    -3.905000000    -1.011000000
C     2.155000000    -3.768000000    -1.994000000
C     0.881000000    -4.290000000    -1.824000000
H     0.610000000    -4.749000000    -0.876000000
C    -0.143000000    -4.056000000    -2.734000000
O    -1.333000000    -4.415000000    -2.377000000
C     0.086000000    -3.316000000    -3.887000000
C    -1.018000000    -2.935000000    -4.887000000
H    -0.526000000    -2.823000000    -5.855000000
C    -1.860000000    -1.688000000    -4.483000000
C    -1.553000000    -0.457000000    -5.090000000
H    -0.824000000    -0.376000000    -5.891000000
H    -1.747000000    -3.748000000    -4.901000000
C     1.395000000    -2.831000000    -4.061000000
H     1.524000000    -2.211000000    -4.944000000
C     2.432000000    -2.992000000    -3.146000000
C     3.818000000    -2.443000000    -3.376000000
H     3.936000000    -2.267000000    -4.447000000
H     4.593000000    -3.168000000    -3.118000000
C     3.947000000    -1.130000000    -2.693000000
C     3.659000000    -0.009000000    -3.380000000
H     3.496000000     0.033000000    -4.454000000
C     4.156000000    -1.020000000    -1.304000000
C     4.137000000     0.223000000    -0.656000000
H     4.201000000     0.242000000     0.429000000
C     3.773000000     1.320000000    -1.405000000
O     3.767000000     2.498000000    -0.730000000
C     2.492000000     3.134000000    -0.431000000
C     2.348000000     3.661000000     1.048000000
C     1.441000000     4.735000000     1.256000000
H     0.890000000     5.269000000     0.486000000
C     2.985000000     3.049000000     2.090000000
H     3.701000000     2.238000000     1.984000000
O     2.125000000     4.129000000    -1.439000000
H     1.712000000     2.361000000    -0.492000000
C     3.544000000     1.229000000    -2.807000000
C     3.236000000     2.530000000    -3.584000000
H     3.500000000     2.355000000    -4.629000000
H     3.755000000     3.429000000    -3.245000000
C     1.789000000     2.819000000    -3.518000000
C     0.821000000     2.266000000    -4.440000000
H     1.128000000     1.707000000    -5.320000000
C     1.283000000     3.667000000    -2.486000000
C    -0.053000000     3.922000000    -2.346000000
H    -0.392000000     4.531000000    -1.512000000
C    -0.959000000     3.393000000    -3.277000000
O    -2.257000000     3.630000000    -2.985000000
C    -3.025000000     2.628000000    -2.263000000
C    -3.750000000     3.253000000    -1.070000000
C    -3.614000000     4.557000000    -0.701000000
H    -3.106000000     5.257000000    -1.360000000
C    -4.505000000     2.383000000    -0.260000000
H    -4.696000000     1.336000000    -0.479000000
O    -3.769000000     1.837000000    -3.205000000
H    -2.284000000     1.943000000    -1.824000000
C    -0.583000000     2.548000000    -4.313000000
C    -1.656000000     2.002000000    -5.274000000
H    -1.220000000     1.815000000    -6.258000000
H    -2.277000000     2.863000000    -5.529000000
C    -2.207000000     0.681000000    -4.699000000
C    -3.232000000     0.634000000    -3.765000000
C    -3.594000000    -0.567000000    -3.123000000
H    -4.355000000    -0.455000000    -2.356000000
C    -2.932000000    -1.776000000    -3.517000000
O    -3.151000000    -3.003000000    -2.838000000
C    -2.209000000    -3.368000000    -1.896000000
H    -1.663000000    -2.449000000    -1.637000000
C    -2.845000000    -3.771000000    -0.612000000
C    -2.296000000    -4.756000000     0.215000000
H    -1.408000000    -5.325000000    -0.047000000
C    -3.920000000    -2.980000000    -0.147000000
H    -4.284000000    -2.092000000    -0.656000000
C    -4.605000000    -3.377000000     1.043000000
O    -5.634000000    -2.626000000     1.575000000
C    -4.112000000    -4.511000000     1.754000000
H    -4.562000000    -4.807000000     2.698000000
C    -2.944000000    -5.176000000     1.365000000
O    -2.485000000    -6.218000000     2.127000000
C    -1.200000000    -6.765000000     2.196000000
C    -0.180000000    -6.075000000     2.848000000
H    -0.383000000    -5.078000000     3.232000000
C    -0.940000000    -7.957000000     1.555000000
H    -1.691000000    -8.541000000     1.029000000
C     0.418000000    -8.393000000     1.397000000
H     0.652000000    -9.256000000     0.778000000
C     1.388000000    -7.785000000     2.243000000
H     2.391000000    -8.202000000     2.277000000
C     1.100000000    -6.560000000     2.848000000
O     2.050000000    -5.907000000     3.599000000
C     2.698000000    -4.767000000     3.084000000
C     3.406000000    -4.016000000     3.992000000
H     3.450000000    -4.337000000     5.030000000
C     3.886000000    -2.762000000     3.685000000
O     4.423000000    -1.937000000     4.690000000
C     4.724000000    -0.648000000     4.363000000
C     3.770000000     0.398000000     4.504000000
H     2.767000000     0.156000000     4.848000000
C     6.034000000    -0.218000000     4.137000000
H     6.867000000    -0.907000000     4.028000000
C     6.374000000     1.160000000     4.002000000
H     7.422000000     1.444000000     3.948000000
C     5.409000000     2.076000000     4.128000000
H     5.629000000     3.129000000     3.974000000
C     4.112000000     1.713000000     4.362000000
O     3.140000000     2.635000000     4.466000000
C     2.667000000     3.446000000     3.394000000
C     1.853000000     4.521000000     3.597000000
H     1.620000000     4.952000000     4.567000000
C     1.300000000     5.196000000     2.526000000
O     0.391000000     6.225000000     2.822000000
C    -0.542000000     6.784000000     1.956000000
C    -1.796000000     6.181000000     1.716000000
H    -2.041000000     5.175000000     2.048000000
C    -0.281000000     8.058000000     1.471000000
H     0.663000000     8.523000000     1.743000000
C    -1.248000000     8.791000000     0.811000000
H    -1.028000000     9.816000000     0.523000000
C    -2.549000000     8.233000000     0.619000000
H    -3.266000000     8.665000000    -0.075000000
C    -2.778000000     6.908000000     0.976000000
O    -3.986000000     6.316000000     0.743000000
C    -4.087000000     4.975000000     0.427000000
C    -4.815000000     4.155000000     1.259000000
H    -5.338000000     4.506000000     2.145000000
C    -5.019000000     2.837000000     0.940000000
O    -5.878000000     2.124000000     1.723000000
C    -5.469000000     0.974000000     2.291000000
C    -4.874000000     1.003000000     3.563000000
H    -4.600000000     1.938000000     4.045000000
C    -4.551000000    -0.179000000     4.222000000
H    -4.014000000    -0.275000000     5.162000000
C    -4.891000000    -1.376000000     3.526000000
H    -4.605000000    -2.352000000     3.911000000
C    -5.381000000    -1.423000000     2.231000000
C    -5.665000000    -0.187000000     1.579000000
H    -6.082000000    -0.146000000     0.576000000
C    -0.963000000     0.394000000     2.756000000
H    -1.333000000     0.981000000     3.592000000
C    -0.925000000     0.992000000     1.470000000
H    -1.264000000     2.023000000     1.523000000
C    -0.483000000     0.315000000     0.306000000
H    -0.510000000     0.842000000    -0.657000000
C    -0.057000000    -1.047000000     0.448000000
H     0.269000000    -1.673000000    -0.378000000
C    -0.077000000    -1.598000000     1.767000000
H     0.399000000    -2.564000000     1.906000000
C    -0.489000000    -0.880000000     2.888000000
C    -0.433000000    -1.516000000     4.251000000
O    -0.156000000    -2.715000000     4.295000000
O    -0.635000000    -0.835000000     5.241000000
O    -3.753000000    -1.392000000     8.603000000
H    -3.881000000    -2.037000000     7.908000000
H    -3.356000000    -1.887000000     9.320000000
O     1.147000000     0.415000000     6.934000000
H     0.374000000     0.180000000     6.419000000
H     0.858000000     1.148000000     7.478000000
O    -0.238000000    -5.190000000     6.791000000
H    -0.986000000    -4.669000000     6.499000000
H     0.481000000    -4.561000000     6.857000000
O     0.771000000    -7.445000000     5.682000000
H     1.230000000    -7.088000000     4.922000000
H     0.347000000    -6.687000000     6.083000000
O    -3.054000000    -6.483000000     8.291000000
H    -3.392000000    -6.009000000     7.531000000
H    -2.452000000    -7.129000000     7.921000000
O    -0.488000000     2.827000000     5.475000000
H     0.220000000     2.411000000     4.983000000
H    -0.950000000     2.100000000     5.891000000
O    -4.316000000    -5.624000000     6.121000000
H    -3.569000000    -5.330000000     5.599000000
H    -5.082000000    -5.363000000     5.611000000
O    -1.264000000     4.675000000     7.370000000
H    -1.489000000     5.536000000     7.017000000
H    -1.227000000     4.104000000     6.602000000
O     0.608000000     0.547000000    10.307000000
H     1.448000000     0.623000000    10.761000000
H     0.401000000     1.441000000    10.035000000
O     5.288000000    -3.993000000     6.767000000
H     6.031000000    -3.853000000     7.355000000
H     5.042000000    -3.114000000     6.480000000
O    -2.236000000    -4.309000000     4.964000000
H    -1.377000000    -4.115000000     4.588000000
H    -2.539000000    -3.472000000     5.315000000
O    -0.082000000    -1.697000000     9.083000000
H     0.363000000    -2.428000000     9.511000000
H     0.104000000    -0.943000000     9.642000000
O    -2.532000000    -4.001000000     9.314000000
H    -2.012000000    -3.721000000     8.562000000
H    -2.766000000    -4.909000000     9.119000000
O    -1.998000000     0.805000000     6.725000000
H    -1.531000000     0.094000000     6.286000000
H    -2.620000000     0.362000000     7.302000000
O     3.585000000     0.075000000     8.386000000
H     4.089000000     0.719000000     7.888000000
H     2.679000000     0.377000000     8.320000000
O     2.920000000    -4.792000000     7.805000000
H     2.558000000    -4.202000000     7.144000000
H     3.789000000    -5.018000000     7.474000000
O     1.499000000    -3.115000000     6.312000000
H     1.608000000    -2.221000000     6.636000000
H     1.074000000    -3.011000000     5.461000000
O    -1.605000000    -2.536000000     7.114000000
H    -1.323000000    -1.990000000     6.380000000
H    -1.090000000    -2.222000000     7.857000000
O     0.893000000    -4.757000000     9.547000000
H     0.201000000    -5.130000000     9.001000000
H     1.660000000    -4.730000000     8.975000000
