215
-1462.59520
C     4.583000000    -2.583000000     1.125000000
H     5.119000000    -1.642000000     1.032000000
C     3.868000000    -3.121000000     0.065000000
C     3.317000000    -4.360000000     0.286000000
H     2.613000000    -4.714000000    -0.463000000
C     3.570000000    -2.317000000    -1.192000000
O     4.601000000    -1.400000000    -1.413000000
H     2.684000000    -1.689000000    -1.019000000
O     3.396000000    -3.198000000    -2.387000000
C     2.457000000    -2.794000000    -3.319000000
C     1.242000000    -3.455000000    -3.180000000
H     1.114000000    -4.212000000    -2.410000000
C     0.074000000    -2.973000000    -3.799000000
O    -1.153000000    -3.516000000    -3.543000000
C     0.220000000    -1.857000000    -4.629000000
C    -1.037000000    -1.382000000    -5.475000000
H    -0.630000000    -1.048000000    -6.432000000
C    -1.906000000    -0.383000000    -4.729000000
C    -1.715000000     0.971000000    -4.925000000
H    -0.902000000     1.322000000    -5.556000000
H    -1.633000000    -2.225000000    -5.830000000
C     1.373000000    -1.114000000    -4.725000000
H     1.243000000    -0.175000000    -5.257000000
C     2.501000000    -1.617000000    -4.056000000
C     3.788000000    -0.816000000    -4.113000000
H     3.998000000    -0.340000000    -5.073000000
H     4.603000000    -1.543000000    -4.117000000
C     3.795000000     0.247000000    -3.016000000
C     3.372000000     1.546000000    -3.175000000
H     3.003000000     1.866000000    -4.146000000
C     4.196000000    -0.112000000    -1.732000000
C     4.033000000     0.807000000    -0.677000000
H     4.380000000     0.406000000     0.272000000
C     3.632000000     2.145000000    -0.840000000
O     3.475000000     2.939000000     0.297000000
C     2.109000000     3.153000000     0.634000000
C     1.852000000     2.959000000     2.128000000
C     0.741000000     3.616000000     2.706000000
H     0.055000000     4.295000000     2.208000000
C     2.693000000     2.096000000     2.860000000
H     3.535000000     1.597000000     2.387000000
O     1.629000000     4.402000000     0.106000000
H     1.523000000     2.343000000     0.176000000
C     3.297000000     2.544000000    -2.144000000
C     2.788000000     3.950000000    -2.508000000
H     3.130000000     4.166000000    -3.522000000
H     3.342000000     4.651000000    -1.881000000
C     1.351000000     4.050000000    -2.248000000
C     0.437000000     3.783000000    -3.260000000
H     0.808000000     3.646000000    -4.272000000
C     0.808000000     4.339000000    -0.997000000
C    -0.563000000     4.434000000    -0.807000000
H    -1.018000000     4.790000000     0.114000000
C    -1.463000000     4.092000000    -1.824000000
O    -2.884000000     4.154000000    -1.687000000
C    -3.448000000     2.921000000    -1.370000000
C    -4.390000000     3.088000000    -0.211000000
C    -4.102000000     4.113000000     0.690000000
H    -3.396000000     4.900000000     0.439000000
C    -5.521000000     2.251000000    -0.106000000
H    -5.637000000     1.371000000    -0.735000000
O    -4.161000000     2.401000000    -2.571000000
H    -2.659000000     2.191000000    -1.136000000
C    -0.921000000     3.745000000    -3.004000000
C    -1.771000000     3.323000000    -4.177000000
H    -1.246000000     3.416000000    -5.131000000
H    -2.568000000     4.036000000    -4.399000000
C    -2.336000000     1.931000000    -4.122000000
C    -3.383000000     1.502000000    -3.328000000
C    -3.678000000     0.144000000    -3.116000000
H    -4.471000000    -0.227000000    -2.471000000
C    -2.904000000    -0.816000000    -3.807000000
O    -3.042000000    -2.166000000    -3.446000000
C    -1.973000000    -2.774000000    -2.587000000
H    -1.403000000    -1.932000000    -2.168000000
C    -2.516000000    -3.628000000    -1.427000000
C    -1.850000000    -4.735000000    -0.961000000
H    -0.927000000    -4.966000000    -1.488000000
C    -3.598000000    -3.094000000    -0.731000000
H    -3.925000000    -2.118000000    -1.079000000
C    -4.122000000    -3.836000000     0.297000000
O    -5.183000000    -3.396000000     1.016000000
C    -3.525000000    -5.080000000     0.706000000
H    -3.960000000    -5.725000000     1.465000000
C    -2.346000000    -5.498000000     0.096000000
O    -1.640000000    -6.490000000     0.774000000
C    -0.372000000    -6.863000000     0.418000000
C     0.644000000    -6.566000000     1.303000000
H     0.412000000    -6.045000000     2.229000000
C    -0.127000000    -7.523000000    -0.811000000
H    -0.933000000    -7.694000000    -1.520000000
C     1.196000000    -7.763000000    -1.205000000
H     1.400000000    -8.017000000    -2.242000000
C     2.217000000    -7.525000000    -0.293000000
H     3.247000000    -7.613000000    -0.630000000
C     1.953000000    -6.868000000     0.931000000
O     3.021000000    -6.362000000     1.687000000
C     3.586000000    -5.126000000     1.404000000
C     4.363000000    -4.570000000     2.414000000
H     4.626000000    -5.164000000     3.285000000
C     4.862000000    -3.342000000     2.271000000
O     5.495000000    -2.789000000     3.407000000
C     5.566000000    -1.498000000     3.788000000
C     4.416000000    -0.785000000     4.143000000
H     3.476000000    -1.326000000     4.218000000
C     6.749000000    -0.799000000     3.765000000
H     7.723000000    -1.250000000     3.595000000
C     6.863000000     0.541000000     4.237000000
H     7.812000000     1.071000000     4.262000000
C     5.641000000     1.209000000     4.588000000
H     5.681000000     2.247000000     4.907000000
C     4.445000000     0.546000000     4.511000000
O     3.282000000     1.087000000     4.978000000
C     2.483000000     1.974000000     4.254000000
C     1.355000000     2.467000000     4.808000000
H     1.098000000     2.318000000     5.854000000
C     0.462000000     3.253000000     4.077000000
O    -0.675000000     3.736000000     4.731000000
C    -1.461000000     4.743000000     4.260000000
C    -2.605000000     4.369000000     3.549000000
H    -2.841000000     3.310000000     3.471000000
C    -1.122000000     6.090000000     4.470000000
H    -0.178000000     6.302000000     4.965000000
C    -2.026000000     7.065000000     4.091000000
H    -1.788000000     8.124000000     4.167000000
C    -3.214000000     6.655000000     3.405000000
H    -3.835000000     7.473000000     3.048000000
C    -3.474000000     5.360000000     3.119000000
O    -4.744000000     5.078000000     2.745000000
C    -4.951000000     4.161000000     1.759000000
C    -5.926000000     3.269000000     2.043000000
H    -6.516000000     3.347000000     2.953000000
C    -6.163000000     2.237000000     1.156000000
O    -6.831000000     1.013000000     1.465000000
C    -5.975000000     0.045000000     1.834000000
C    -4.977000000     0.316000000     2.745000000
H    -4.979000000     1.242000000     3.314000000
C    -4.089000000    -0.668000000     3.134000000
H    -3.337000000    -0.475000000     3.895000000
C    -4.102000000    -1.927000000     2.502000000
H    -3.494000000    -2.713000000     2.943000000
C    -5.117000000    -2.193000000     1.587000000
C    -6.092000000    -1.212000000     1.285000000
H    -6.990000000    -1.512000000     0.752000000
C    -1.005000000     0.282000000     2.678000000
H    -1.716000000     0.703000000     3.384000000
C    -1.150000000     0.703000000     1.378000000
H    -2.085000000     1.183000000     1.100000000
C    -0.146000000     0.380000000     0.436000000
H    -0.309000000     0.659000000    -0.681000000
C     0.958000000    -0.370000000     0.819000000
H     1.706000000    -0.573000000     0.056000000
C     1.194000000    -0.712000000     2.115000000
H     2.180000000    -1.037000000     2.437000000
C     0.201000000    -0.394000000     3.064000000
C     0.381000000    -0.761000000     4.543000000
O     1.172000000    -1.606000000     4.843000000
O    -0.427000000    -0.355000000     5.403000000
O    -4.668000000    -3.529000000     5.620000000
H    -3.717000000    -3.454000000     5.543000000
H    -4.820000000    -3.706000000     6.548000000
O     2.033000000    -6.235000000     7.874000000
H     2.751000000    -6.372000000     8.492000000
H     2.353000000    -5.555000000     7.281000000
O    -2.845000000    -6.493000000     5.718000000
H    -1.997000000    -6.086000000     5.896000000
H    -3.383000000    -6.266000000     6.477000000
O    -1.902000000    -2.785000000     5.779000000
H    -1.390000000    -3.524000000     6.108000000
H    -1.272000000    -2.067000000     5.716000000
O    -0.040000000    -3.449000000     1.931000000
H    -0.641000000    -3.690000000     1.225000000
H     0.072000000    -2.503000000     1.837000000
O    -2.662000000     1.550000000     8.569000000
H    -2.571000000     2.139000000     7.820000000
H    -2.887000000     0.704000000     8.183000000
O    -5.163000000     1.670000000     5.687000000
H    -5.644000000     2.469000000     5.901000000
H    -4.245000000     1.894000000     5.841000000
O    -1.980000000     1.704000000     5.856000000
H    -1.479000000     2.504000000     5.698000000
H    -1.347000000     0.997000000     5.733000000
O    -0.436000000    -5.381000000     6.306000000
H     0.265000000    -5.958000000     6.609000000
H    -0.065000000    -4.931000000     5.547000000
O    -0.087000000     1.128000000    10.230000000
H    -0.287000000     0.542000000     9.500000000
H    -0.856000000     1.075000000    10.798000000
O     3.454000000    -4.956000000     5.596000000
H     4.150000000    -4.366000000     5.887000000
H     2.828000000    -4.387000000     5.150000000
O    -0.542000000    -0.566000000     8.052000000
H    -0.592000000    -0.379000000     7.115000000
H     0.177000000    -1.192000000     8.134000000
O    -1.045000000     4.352000000     8.222000000
H    -0.596000000     3.666000000     8.717000000
H    -0.339000000     4.857000000     7.819000000
O     2.249000000    -1.943000000     7.199000000
H     1.938000000    -1.760000000     6.312000000
H     2.810000000    -1.199000000     7.415000000
O    -3.845000000    -1.291000000     7.724000000
H    -3.375000000    -1.097000000     6.913000000
H    -3.296000000    -1.935000000     8.171000000
O     0.824000000    -3.120000000     9.199000000
H     0.391000000    -3.900000000     8.853000000
H     1.334000000    -2.782000000     8.463000000
O     4.277000000    -0.086000000     7.546000000
H     4.269000000     0.339000000     6.688000000
H     4.337000000     0.638000000     8.170000000
O     0.794000000    -4.011000000     4.373000000
H     0.621000000    -3.906000000     3.438000000
H     0.918000000    -3.118000000     4.695000000
O     6.347000000    -1.983000000     8.010000000
H     5.618000000    -1.435000000     7.721000000
H     7.097000000    -1.388000000     8.039000000
