215
-1448.08863
C     4.552000000    -2.625000000     0.862000000
H     5.141000000    -1.763000000     0.560000000
C     3.721000000    -3.192000000    -0.132000000
C     3.062000000    -4.454000000     0.064000000
H     2.297000000    -4.786000000    -0.633000000
C     3.232000000    -2.307000000    -1.278000000
O     4.202000000    -1.313000000    -1.601000000
H     2.318000000    -1.872000000    -0.847000000
O     3.021000000    -3.097000000    -2.500000000
C     2.010000000    -2.952000000    -3.390000000
C     0.833000000    -3.636000000    -3.193000000
H     0.873000000    -4.423000000    -2.444000000
C    -0.323000000    -3.280000000    -3.776000000
O    -1.529000000    -3.808000000    -3.314000000
C    -0.359000000    -2.142000000    -4.582000000
C    -1.668000000    -1.584000000    -5.270000000
H    -1.342000000    -1.278000000    -6.266000000
C    -2.307000000    -0.501000000    -4.441000000
C    -2.101000000     0.872000000    -4.734000000
H    -1.367000000     1.027000000    -5.521000000
H    -2.371000000    -2.392000000    -5.485000000
C     0.908000000    -1.460000000    -4.874000000
H     0.967000000    -0.600000000    -5.536000000
C     2.093000000    -1.865000000    -4.274000000
C     3.390000000    -0.995000000    -4.381000000
H     3.255000000    -0.327000000    -5.235000000
H     4.289000000    -1.589000000    -4.556000000
C     3.426000000     0.147000000    -3.341000000
C     3.039000000     1.465000000    -3.618000000
H     2.507000000     1.599000000    -4.557000000
C     3.839000000    -0.082000000    -2.027000000
C     4.040000000     0.934000000    -1.094000000
H     4.508000000     0.636000000    -0.159000000
C     3.731000000     2.284000000    -1.398000000
O     3.717000000     3.212000000    -0.364000000
C     2.444000000     3.425000000     0.265000000
C     2.482000000     3.370000000     1.785000000
C     1.503000000     4.180000000     2.494000000
H     0.867000000     4.819000000     1.887000000
C     3.291000000     2.469000000     2.473000000
H     4.094000000     1.998000000     1.913000000
O     1.813000000     4.608000000    -0.320000000
H     1.810000000     2.585000000    -0.056000000
C     3.154000000     2.526000000    -2.651000000
C     2.554000000     3.889000000    -3.037000000
H     2.691000000     4.062000000    -4.106000000
H     3.186000000     4.589000000    -2.487000000
C     1.119000000     3.988000000    -2.586000000
C     0.154000000     3.641000000    -3.505000000
H     0.340000000     3.332000000    -4.531000000
C     0.785000000     4.404000000    -1.306000000
C    -0.483000000     4.552000000    -0.904000000
H    -0.649000000     4.701000000     0.160000000
C    -1.500000000     4.348000000    -1.878000000
O    -2.771000000     4.253000000    -1.346000000
C    -3.325000000     3.018000000    -0.960000000
C    -4.135000000     3.198000000     0.270000000
C    -3.741000000     4.170000000     1.174000000
H    -3.032000000     4.954000000     0.921000000
C    -5.144000000     2.266000000     0.567000000
H    -5.365000000     1.432000000    -0.094000000
O    -4.049000000     2.428000000    -2.054000000
H    -2.482000000     2.362000000    -0.698000000
C    -1.196000000     3.819000000    -3.164000000
C    -2.242000000     3.330000000    -4.171000000
H    -1.879000000     3.409000000    -5.198000000
H    -3.081000000     4.026000000    -4.116000000
C    -2.671000000     1.891000000    -3.915000000
C    -3.431000000     1.471000000    -2.794000000
C    -3.625000000     0.150000000    -2.523000000
H    -4.175000000    -0.169000000    -1.642000000
C    -3.034000000    -0.838000000    -3.316000000
O    -3.266000000    -2.184000000    -2.930000000
C    -2.231000000    -2.954000000    -2.362000000
H    -1.447000000    -2.269000000    -2.006000000
C    -2.754000000    -3.730000000    -1.172000000
C    -2.165000000    -4.899000000    -0.740000000
H    -1.267000000    -5.192000000    -1.279000000
C    -3.851000000    -3.192000000    -0.409000000
H    -4.304000000    -2.220000000    -0.587000000
C    -4.419000000    -3.938000000     0.591000000
O    -5.498000000    -3.407000000     1.330000000
C    -3.851000000    -5.151000000     0.982000000
H    -4.403000000    -5.742000000     1.708000000
C    -2.709000000    -5.653000000     0.339000000
O    -2.134000000    -6.829000000     0.779000000
C    -0.809000000    -7.197000000     0.423000000
C     0.261000000    -6.611000000     1.144000000
H     0.091000000    -5.968000000     2.003000000
C    -0.602000000    -8.177000000    -0.522000000
H    -1.477000000    -8.529000000    -1.062000000
C     0.709000000    -8.504000000    -0.849000000
H     0.783000000    -9.161000000    -1.712000000
C     1.783000000    -7.857000000    -0.185000000
H     2.735000000    -8.140000000    -0.627000000
C     1.604000000    -6.895000000     0.820000000
O     2.670000000    -6.325000000     1.503000000
C     3.282000000    -5.132000000     1.233000000
C     4.031000000    -4.582000000     2.198000000
H     4.067000000    -5.152000000     3.123000000
C     4.654000000    -3.319000000     2.067000000
O     5.400000000    -2.873000000     3.084000000
C     5.655000000    -1.516000000     3.410000000
C     4.600000000    -0.721000000     3.871000000
H     3.678000000    -1.180000000     4.218000000
C     6.904000000    -1.025000000     3.149000000
H     7.692000000    -1.662000000     2.755000000
C     7.215000000     0.316000000     3.412000000
H     8.133000000     0.767000000     3.046000000
C     6.149000000     1.124000000     3.862000000
H     6.372000000     2.187000000     3.832000000
C     4.869000000     0.615000000     4.061000000
O     3.979000000     1.541000000     4.626000000
C     3.184000000     2.358000000     3.852000000
C     2.267000000     3.204000000     4.475000000
H     2.152000000     3.076000000     5.548000000
C     1.361000000     4.096000000     3.815000000
O     0.472000000     4.727000000     4.619000000
C    -0.615000000     5.501000000     4.212000000
C    -1.850000000     4.872000000     4.053000000
H    -2.107000000     3.823000000     4.175000000
C    -0.453000000     6.841000000     3.869000000
H     0.583000000     7.167000000     3.898000000
C    -1.437000000     7.634000000     3.379000000
H    -1.232000000     8.677000000     3.155000000
C    -2.737000000     7.088000000     3.381000000
H    -3.562000000     7.725000000     3.071000000
C    -2.941000000     5.713000000     3.630000000
O    -4.195000000     5.235000000     3.316000000
C    -4.386000000     4.285000000     2.397000000
C    -5.391000000     3.367000000     2.711000000
H    -5.848000000     3.465000000     3.692000000
C    -5.604000000     2.303000000     1.866000000
O    -6.370000000     1.205000000     2.279000000
C    -5.588000000     0.061000000     2.548000000
C    -4.570000000     0.053000000     3.486000000
H    -4.449000000     0.925000000     4.125000000
C    -3.844000000    -1.150000000     3.706000000
H    -3.220000000    -1.170000000     4.596000000
C    -4.097000000    -2.311000000     3.001000000
H    -3.455000000    -3.168000000     3.189000000
C    -5.218000000    -2.337000000     2.141000000
C    -5.957000000    -1.184000000     2.023000000
H    -6.837000000    -1.297000000     1.395000000
C    -0.241000000     1.140000000     2.174000000
H    -0.563000000     1.619000000     3.095000000
C    -0.621000000     1.755000000     0.918000000
H    -1.159000000     2.696000000     0.995000000
C    -0.261000000     1.127000000    -0.296000000
H    -0.570000000     1.525000000    -1.215000000
C     0.453000000    -0.042000000    -0.293000000
H     0.731000000    -0.397000000    -1.282000000
C     0.715000000    -0.673000000     0.936000000
H     1.274000000    -1.601000000     1.029000000
C     0.404000000    -0.103000000     2.172000000
C     0.701000000    -0.910000000     3.472000000
O     1.354000000    -1.943000000     3.386000000
O     0.119000000    -0.578000000     4.545000000
O     2.497000000    -4.698000000     8.009000000
H     3.253000000    -5.056000000     8.475000000
H     2.854000000    -4.389000000     7.176000000
O    -0.091000000    -5.750000000     7.147000000
H     0.787000000    -5.396000000     7.289000000
H    -0.651000000    -5.245000000     7.737000000
O    -0.266000000    -2.810000000     5.942000000
H    -1.195000000    -2.844000000     6.169000000
H    -0.176000000    -2.012000000     5.420000000
O    -0.619000000    -3.726000000     3.385000000
H    -0.176000000    -3.244000000     2.686000000
H    -0.510000000    -3.176000000     4.161000000
O    -2.796000000    -0.576000000     7.174000000
H    -2.551000000    -0.682000000     8.094000000
H    -2.884000000    -1.471000000     6.845000000
O     5.434000000     2.440000000     7.428000000
H     4.766000000     2.856000000     6.884000000
H     6.230000000     2.471000000     6.897000000
O    -2.199000000     1.341000000     5.358000000
H    -2.450000000     0.662000000     5.984000000
H    -1.925000000     0.857000000     4.578000000
O    -0.118000000     3.445000000     7.190000000
H     0.075000000     2.508000000     7.163000000
H    -0.374000000     3.663000000     6.294000000
O    -2.282000000     3.117000000     8.677000000
H    -1.498000000     2.943000000     8.157000000
H    -2.204000000     4.038000000     8.926000000
O    -1.446000000    -5.782000000     4.660000000
H    -0.969000000    -5.625000000     5.475000000
H    -1.296000000    -4.994000000     4.138000000
O    -1.431000000    -0.947000000     9.324000000
H    -1.522000000    -1.143000000    10.256000000
H    -0.721000000    -1.517000000     9.028000000
O     4.422000000    -5.601000000     5.501000000
H     5.076000000    -6.293000000     5.602000000
H     4.935000000    -4.799000000     5.407000000
O     0.264000000     0.623000000     6.915000000
H     0.385000000     0.338000000     6.010000000
H    -0.346000000    -0.014000000     7.288000000
O     2.429000000    -3.150000000     5.761000000
H     2.593000000    -2.892000000     4.854000000
H     1.504000000    -2.950000000     5.903000000
O    -2.954000000    -3.134000000     6.410000000
H    -3.797000000    -3.453000000     6.087000000
H    -2.747000000    -3.709000000     7.147000000
O     0.772000000    -2.849000000     8.463000000
H     1.389000000    -3.572000000     8.350000000
H     0.381000000    -2.731000000     7.597000000
O     3.089000000     1.175000000     8.654000000
H     3.902000000     1.350000000     8.181000000
H     2.399000000     1.478000000     8.065000000
O     1.590000000    -5.534000000     4.096000000
H     0.884000000    -5.063000000     3.655000000
H     1.945000000    -4.904000000     4.722000000
O     4.212000000    -2.304000000     7.865000000
H     3.801000000    -2.588000000     7.048000000
H     3.630000000    -1.623000000     8.202000000
