215
-1440.11869
C     4.211000000    -1.128000000     2.231000000
H     4.428000000    -0.072000000     2.091000000
C     3.975000000    -1.947000000     1.077000000
C     3.623000000    -3.305000000     1.243000000
H     3.264000000    -3.934000000     0.433000000
C     3.841000000    -1.245000000    -0.289000000
O     4.809000000    -0.202000000    -0.411000000
H     2.845000000    -0.777000000    -0.270000000
O     4.021000000    -2.210000000    -1.352000000
C     3.275000000    -2.296000000    -2.498000000
C     2.175000000    -3.157000000    -2.503000000
H     2.008000000    -3.880000000    -1.708000000
C     1.127000000    -3.008000000    -3.444000000
O     0.113000000    -3.939000000    -3.317000000
C     1.227000000    -2.039000000    -4.432000000
C     0.026000000    -1.914000000    -5.465000000
H     0.296000000    -1.569000000    -6.466000000
C    -1.099000000    -1.080000000    -4.843000000
C    -1.220000000     0.308000000    -5.067000000
H    -0.421000000     0.761000000    -5.649000000
H    -0.371000000    -2.911000000    -5.671000000
C     2.326000000    -1.206000000    -4.463000000
H     2.350000000    -0.443000000    -5.237000000
C     3.324000000    -1.323000000    -3.505000000
C     4.478000000    -0.327000000    -3.350000000
H     4.753000000     0.030000000    -4.344000000
H     5.340000000    -0.914000000    -3.028000000
C     4.120000000     0.901000000    -2.532000000
C     3.459000000     2.043000000    -3.070000000
H     3.167000000     2.087000000    -4.117000000
C     4.431000000     0.913000000    -1.172000000
C     4.038000000     1.982000000    -0.370000000
H     4.236000000     1.895000000     0.695000000
C     3.450000000     3.149000000    -0.898000000
O     3.059000000     4.109000000    -0.023000000
C     1.626000000     4.041000000     0.396000000
C     1.374000000     4.276000000     1.920000000
C     0.004000000     4.471000000     2.391000000
H    -0.806000000     4.562000000     1.671000000
C     2.375000000     3.937000000     2.870000000
H     3.340000000     3.698000000     2.430000000
O     0.840000000     4.987000000    -0.329000000
H     1.217000000     3.053000000     0.135000000
C     3.141000000     3.157000000    -2.262000000
C     2.334000000     4.277000000    -2.852000000
H     2.550000000     4.342000000    -3.921000000
H     2.582000000     5.245000000    -2.413000000
C     0.818000000     4.080000000    -2.584000000
C     0.026000000     3.587000000    -3.660000000
H     0.489000000     3.281000000    -4.595000000
C     0.103000000     4.427000000    -1.385000000
C    -1.256000000     4.062000000    -1.132000000
H    -1.770000000     4.166000000    -0.180000000
C    -1.951000000     3.520000000    -2.191000000
O    -3.271000000     3.179000000    -2.035000000
C    -3.569000000     1.792000000    -1.729000000
C    -4.663000000     1.731000000    -0.708000000
C    -4.921000000     2.854000000     0.074000000
H    -4.534000000     3.862000000    -0.042000000
C    -5.334000000     0.500000000    -0.406000000
H    -5.051000000    -0.424000000    -0.904000000
O    -4.082000000     1.164000000    -2.947000000
H    -2.768000000     1.229000000    -1.229000000
C    -1.315000000     3.257000000    -3.415000000
C    -2.097000000     2.569000000    -4.552000000
H    -1.624000000     2.780000000    -5.514000000
H    -3.077000000     3.004000000    -4.756000000
C    -2.139000000     1.056000000    -4.419000000
C    -3.109000000     0.438000000    -3.624000000
C    -3.075000000    -0.926000000    -3.505000000
H    -3.827000000    -1.330000000    -2.832000000
C    -2.038000000    -1.669000000    -3.993000000
O    -1.994000000    -2.951000000    -3.639000000
C    -1.105000000    -3.501000000    -2.665000000
H    -0.843000000    -2.794000000    -1.865000000
C    -1.713000000    -4.532000000    -1.742000000
C    -0.887000000    -5.343000000    -1.019000000
H     0.197000000    -5.372000000    -1.095000000
C    -3.096000000    -4.440000000    -1.329000000
H    -3.708000000    -3.690000000    -1.825000000
C    -3.593000000    -5.246000000    -0.320000000
O    -4.893000000    -5.022000000     0.192000000
C    -2.728000000    -6.135000000     0.286000000
H    -3.142000000    -6.767000000     1.067000000
C    -1.436000000    -6.266000000    -0.099000000
O    -0.606000000    -7.026000000     0.701000000
C     0.780000000    -6.840000000     0.747000000
C     1.337000000    -6.142000000     1.823000000
H     0.764000000    -5.709000000     2.638000000
C     1.565000000    -7.462000000    -0.152000000
H     1.055000000    -8.097000000    -0.872000000
C     2.959000000    -7.447000000    -0.126000000
H     3.529000000    -8.014000000    -0.857000000
C     3.570000000    -6.612000000     0.814000000
H     4.638000000    -6.415000000     0.864000000
C     2.741000000    -6.020000000     1.775000000
O     3.398000000    -5.209000000     2.688000000
C     3.669000000    -3.873000000     2.505000000
C     3.859000000    -3.072000000     3.596000000
H     3.722000000    -3.498000000     4.587000000
C     4.160000000    -1.707000000     3.457000000
O     4.377000000    -0.950000000     4.637000000
C     4.704000000     0.403000000     4.613000000
C     3.722000000     1.319000000     4.825000000
H     2.775000000     1.020000000     5.267000000
C     6.015000000     0.774000000     4.447000000
H     6.732000000    -0.030000000     4.303000000
C     6.370000000     2.110000000     4.454000000
H     7.439000000     2.311000000     4.477000000
C     5.374000000     3.078000000     4.706000000
H     5.639000000     4.120000000     4.872000000
C     4.034000000     2.685000000     4.838000000
O     3.049000000     3.618000000     5.164000000
C     2.121000000     3.965000000     4.239000000
C     0.764000000     4.132000000     4.616000000
H     0.427000000     4.058000000     5.647000000
C    -0.252000000     4.364000000     3.694000000
O    -1.535000000     4.331000000     4.099000000
C    -2.633000000     4.936000000     3.413000000
C    -3.695000000     4.051000000     3.099000000
H    -3.793000000     2.985000000     3.285000000
C    -2.634000000     6.220000000     2.876000000
H    -1.739000000     6.806000000     3.070000000
C    -3.799000000     6.836000000     2.358000000
H    -3.796000000     7.899000000     2.131000000
C    -4.866000000     5.999000000     2.104000000
H    -5.771000000     6.409000000     1.663000000
C    -4.845000000     4.632000000     2.493000000
O    -5.878000000     3.789000000     2.101000000
C    -5.791000000     2.736000000     1.190000000
C    -6.451000000     1.560000000     1.459000000
H    -7.058000000     1.353000000     2.337000000
C    -6.295000000     0.447000000     0.643000000
O    -6.825000000    -0.757000000     0.935000000
C    -6.076000000    -1.815000000     1.428000000
C    -5.192000000    -1.658000000     2.519000000
H    -5.351000000    -0.763000000     3.116000000
C    -4.300000000    -2.641000000     2.929000000
H    -3.549000000    -2.434000000     3.686000000
C    -4.128000000    -3.796000000     2.129000000
H    -3.267000000    -4.438000000     2.298000000
C    -5.021000000    -3.946000000     1.064000000
C    -5.883000000    -2.941000000     0.706000000
H    -6.493000000    -3.136000000    -0.172000000
C    -0.427000000    -2.815000000     2.555000000
H    -1.063000000    -3.696000000     2.578000000
C    -0.489000000    -1.970000000     1.418000000
H    -0.856000000    -2.361000000     0.473000000
C     0.281000000    -0.860000000     1.337000000
H     0.336000000    -0.346000000     0.339000000
C     0.879000000    -0.301000000     2.444000000
H     1.258000000     0.716000000     2.389000000
C     0.878000000    -1.081000000     3.642000000
H     1.180000000    -0.642000000     4.590000000
C     0.257000000    -2.331000000     3.693000000
C     0.276000000    -3.212000000     4.907000000
O     0.620000000    -2.787000000     6.020000000
O    -0.151000000    -4.306000000     4.785000000
O    -2.411000000    -3.370000000     6.211000000
H    -1.841000000    -3.353000000     6.980000000
H    -1.926000000    -3.884000000     5.565000000
O    -2.035000000    -5.908000000     9.453000000
H    -2.533000000    -5.398000000    10.093000000
H    -1.470000000    -5.266000000     9.023000000
O     2.098000000    -7.715000000     4.607000000
H     2.944000000    -7.692000000     5.053000000
H     2.272000000    -8.176000000     3.786000000
O    -0.256000000    -4.049000000     8.100000000
H     0.267000000    -3.588000000     8.756000000
H     0.007000000    -3.660000000     7.266000000
O    -1.968000000    -6.269000000     4.335000000
H    -1.312000000    -5.580000000     4.234000000
H    -1.986000000    -6.447000000     5.276000000
O     5.765000000    -3.327000000     6.359000000
H     4.856000000    -3.302000000     6.659000000
H     5.875000000    -4.209000000     6.004000000
O    -4.255000000    -2.454000000     8.300000000
H    -4.104000000    -1.509000000     8.266000000
H    -3.779000000    -2.800000000     7.545000000
O     0.290000000    -8.381000000     8.231000000
H     0.730000000    -7.774000000     7.637000000
H     0.971000000    -9.003000000     8.487000000
O    -2.536000000     0.745000000     4.866000000
H    -2.247000000     1.438000000     5.459000000
H    -2.059000000     0.911000000     4.053000000
O    -0.243000000    -0.597000000     7.324000000
H     0.015000000    -1.369000000     6.820000000
H    -1.174000000    -0.730000000     7.505000000
O     2.943000000    -5.104000000     8.663000000
H     3.082000000    -5.929000000     9.127000000
H     2.291000000    -5.312000000     7.994000000
O     1.218000000    -6.144000000     6.852000000
H     1.341000000    -6.438000000     5.950000000
H     0.539000000    -5.472000000     6.795000000
O    -1.502000000    -0.686000000    10.299000000
H    -0.777000000    -1.157000000    10.709000000
H    -1.493000000    -0.979000000     9.387000000
O    -4.732000000    -6.785000000     3.677000000
H    -4.786000000    -7.156000000     2.797000000
H    -3.794000000    -6.725000000     3.855000000
O     2.451000000    -0.075000000     7.799000000
H     2.802000000    -0.917000000     7.508000000
H     1.513000000    -0.131000000     7.615000000
O    -0.340000000    -8.833000000     3.655000000
H     0.400000000    -8.290000000     3.928000000
H    -1.084000000    -8.231000000     3.637000000
O    -1.667000000    -7.002000000     6.985000000
H    -1.638000000    -6.509000000     7.805000000
H    -1.048000000    -7.720000000     7.115000000
O     3.190000000    -2.751000000     7.443000000
H     3.004000000    -3.420000000     8.101000000
H     2.527000000    -2.889000000     6.767000000
O    -3.013000000    -0.192000000     7.591000000
H    -2.856000000    -0.154000000     6.648000000
H    -2.792000000     0.684000000     7.906000000
