215
-1456.94722
C     3.385000000    -2.452000000     1.994000000
H     3.857000000    -1.474000000     2.034000000
C     3.227000000    -3.057000000     0.781000000
C     2.662000000    -4.364000000     0.718000000
H     2.388000000    -4.859000000    -0.210000000
C     3.425000000    -2.262000000    -0.532000000
O     4.619000000    -1.449000000    -0.637000000
H     2.550000000    -1.605000000    -0.642000000
O     3.487000000    -3.116000000    -1.694000000
C     2.724000000    -2.726000000    -2.793000000
C     1.456000000    -3.228000000    -2.832000000
H     1.138000000    -3.988000000    -2.123000000
C     0.526000000    -2.858000000    -3.837000000
O    -0.697000000    -3.357000000    -3.751000000
C     0.838000000    -1.758000000    -4.725000000
C    -0.248000000    -1.200000000    -5.638000000
H     0.225000000    -0.682000000    -6.475000000
C    -1.148000000    -0.192000000    -4.974000000
C    -0.934000000     1.189000000    -5.031000000
H    -0.162000000     1.573000000    -5.693000000
H    -0.809000000    -2.006000000    -6.118000000
C     2.114000000    -1.121000000    -4.519000000
H     2.322000000    -0.200000000    -5.059000000
C     3.093000000    -1.670000000    -3.689000000
C     4.420000000    -0.926000000    -3.536000000
H     4.543000000    -0.526000000    -4.544000000
H     5.275000000    -1.588000000    -3.381000000
C     4.272000000     0.137000000    -2.498000000
C     4.040000000     1.497000000    -2.842000000
H     3.893000000     1.829000000    -3.867000000
C     4.444000000    -0.161000000    -1.136000000
C     4.353000000     0.828000000    -0.159000000
H     4.293000000     0.618000000     0.905000000
C     3.932000000     2.102000000    -0.469000000
O     3.650000000     2.945000000     0.540000000
C     2.239000000     3.140000000     0.819000000
C     2.002000000     3.191000000     2.300000000
C     0.780000000     3.698000000     2.800000000
H     0.034000000     3.961000000     2.054000000
C     2.915000000     2.655000000     3.161000000
H     3.876000000     2.315000000     2.785000000
O     1.931000000     4.398000000     0.201000000
H     1.630000000     2.294000000     0.466000000
C     3.765000000     2.432000000    -1.845000000
C     3.319000000     3.813000000    -2.217000000
H     3.678000000     4.052000000    -3.220000000
H     3.836000000     4.515000000    -1.560000000
C     1.845000000     4.071000000    -2.210000000
C     1.063000000     3.897000000    -3.354000000
H     1.535000000     3.516000000    -4.257000000
C     1.228000000     4.334000000    -0.980000000
C    -0.173000000     4.563000000    -0.928000000
H    -0.713000000     4.752000000    -0.003000000
C    -0.986000000     4.374000000    -2.025000000
O    -2.377000000     4.344000000    -1.847000000
C    -2.969000000     3.110000000    -1.574000000
C    -4.091000000     3.226000000    -0.596000000
C    -4.177000000     4.278000000     0.376000000
H    -3.462000000     5.096000000     0.339000000
C    -4.984000000     2.147000000    -0.356000000
H    -5.022000000     1.404000000    -1.147000000
O    -3.539000000     2.497000000    -2.761000000
H    -2.134000000     2.520000000    -1.168000000
C    -0.350000000     3.980000000    -3.246000000
C    -1.241000000     3.565000000    -4.431000000
H    -0.700000000     3.705000000    -5.369000000
H    -2.136000000     4.151000000    -4.650000000
C    -1.672000000     2.129000000    -4.281000000
C    -2.682000000     1.659000000    -3.483000000
C    -2.956000000     0.279000000    -3.423000000
H    -3.829000000    -0.020000000    -2.848000000
C    -2.192000000    -0.684000000    -4.165000000
O    -2.486000000    -2.059000000    -3.966000000
C    -1.658000000    -2.742000000    -3.014000000
H    -1.201000000    -1.975000000    -2.372000000
C    -2.424000000    -3.613000000    -2.043000000
C    -1.937000000    -4.831000000    -1.588000000
H    -1.026000000    -5.243000000    -2.014000000
C    -3.590000000    -3.101000000    -1.430000000
H    -3.978000000    -2.141000000    -1.760000000
C    -4.265000000    -3.838000000    -0.500000000
O    -5.479000000    -3.508000000     0.039000000
C    -3.776000000    -5.084000000    -0.104000000
H    -4.309000000    -5.712000000     0.606000000
C    -2.562000000    -5.579000000    -0.609000000
O    -2.092000000    -6.797000000    -0.228000000
C    -0.720000000    -7.114000000    -0.099000000
C     0.147000000    -6.476000000     0.810000000
H    -0.376000000    -5.748000000     1.424000000
C    -0.194000000    -8.186000000    -0.924000000
H    -0.751000000    -8.562000000    -1.778000000
C     1.097000000    -8.670000000    -0.687000000
H     1.509000000    -9.488000000    -1.273000000
C     1.955000000    -7.933000000     0.109000000
H     2.967000000    -8.305000000     0.247000000
C     1.472000000    -6.889000000     0.865000000
O     2.236000000    -6.407000000     1.901000000
C     2.670000000    -5.093000000     1.845000000
C     3.036000000    -4.537000000     3.052000000
H     3.070000000    -5.189000000     3.921000000
C     3.318000000    -3.166000000     3.161000000
O     3.691000000    -2.612000000     4.364000000
C     4.249000000    -1.386000000     4.572000000
C     3.519000000    -0.230000000     4.948000000
H     2.438000000    -0.240000000     4.836000000
C     5.670000000    -1.317000000     4.517000000
H     6.269000000    -2.219000000     4.415000000
C     6.335000000    -0.108000000     4.785000000
H     7.403000000    -0.144000000     4.983000000
C     5.625000000     1.018000000     5.181000000
H     6.154000000     1.959000000     5.312000000
C     4.211000000     0.961000000     5.163000000
O     3.418000000     2.060000000     5.488000000
C     2.585000000     2.649000000     4.556000000
C     1.337000000     3.011000000     5.023000000
H     1.192000000     2.915000000     6.096000000
C     0.406000000     3.607000000     4.155000000
O    -0.800000000     4.198000000     4.541000000
C    -1.562000000     4.992000000     3.830000000
C    -2.877000000     4.640000000     3.523000000
H    -3.201000000     3.640000000     3.801000000
C    -1.179000000     6.317000000     3.642000000
H    -0.228000000     6.717000000     3.983000000
C    -2.092000000     7.257000000     3.105000000
H    -1.848000000     8.316000000     3.118000000
C    -3.307000000     6.841000000     2.701000000
H    -4.025000000     7.555000000     2.306000000
C    -3.722000000     5.554000000     2.893000000
O    -4.983000000     5.187000000     2.449000000
C    -5.065000000     4.201000000     1.471000000
C    -5.930000000     3.097000000     1.616000000
H    -6.712000000     3.135000000     2.370000000
C    -5.906000000     2.104000000     0.660000000
O    -6.722000000     0.988000000     0.899000000
C    -6.153000000    -0.176000000     1.358000000
C    -5.824000000    -0.316000000     2.730000000
H    -5.841000000     0.506000000     3.441000000
C    -5.243000000    -1.539000000     3.092000000
H    -4.848000000    -1.579000000     4.104000000
C    -5.155000000    -2.600000000     2.237000000
H    -4.627000000    -3.524000000     2.456000000
C    -5.595000000    -2.449000000     0.910000000
C    -6.020000000    -1.225000000     0.459000000
H    -6.126000000    -0.963000000    -0.591000000
C    -2.100000000    -0.222000000     1.457000000
H    -3.007000000    -0.427000000     2.020000000
C    -2.087000000    -0.006000000     0.105000000
H    -2.966000000     0.200000000    -0.499000000
C    -0.914000000     0.207000000    -0.558000000
H    -0.883000000     0.475000000    -1.616000000
C     0.276000000     0.297000000     0.176000000
H     1.142000000     0.540000000    -0.434000000
C     0.310000000     0.108000000     1.466000000
H     1.216000000     0.216000000     2.056000000
C    -0.851000000    -0.194000000     2.166000000
C    -0.936000000    -0.599000000     3.669000000
O     0.073000000    -1.056000000     4.194000000
O    -2.029000000    -0.782000000     4.195000000
O    -5.192000000    -4.276000000     5.794000000
H    -4.628000000    -5.008000000     5.546000000
H    -4.644000000    -3.500000000     5.677000000
O     0.159000000    -4.475000000     8.569000000
H    -0.717000000    -4.437000000     8.952000000
H     0.611000000    -5.153000000     9.070000000
O    -3.194000000    -2.382000000     5.953000000
H    -2.900000000    -2.107000000     6.821000000
H    -2.685000000    -1.844000000     5.346000000
O    -2.828000000    -5.876000000     2.895000000
H    -2.175000000    -5.232000000     3.169000000
H    -3.054000000    -6.345000000     3.697000000
O    -5.054000000    -0.950000000     8.144000000
H    -4.462000000    -0.329000000     8.570000000
H    -4.473000000    -1.565000000     7.697000000
O    -5.473000000     2.284000000     5.136000000
H    -5.436000000     3.197000000     5.420000000
H    -4.557000000     2.016000000     5.069000000
O    -7.013000000     0.670000000     6.894000000
H    -6.495000000     1.239000000     6.326000000
H    -6.365000000     0.194000000     7.412000000
O     1.976000000     0.930000000     7.829000000
H     2.664000000     1.064000000     7.178000000
H     1.262000000     0.518000000     7.343000000
O    -2.971000000     1.402000000     5.226000000
H    -2.295000000     1.795000000     5.778000000
H    -2.564000000     0.608000000     4.879000000
O    -2.630000000     4.125000000     7.257000000
H    -2.168000000     3.426000000     7.720000000
H    -1.938000000     4.624000000     6.824000000
O    -0.925000000    -5.088000000     6.218000000
H    -0.256000000    -4.784000000     6.832000000
H    -0.700000000    -4.664000000     5.390000000
O    -1.320000000     1.967000000     8.497000000
H    -1.007000000     1.162000000     8.087000000
H    -0.836000000     2.020000000     9.322000000
O    -3.351000000    -6.266000000     5.486000000
H    -2.546000000    -5.843000000     5.787000000
H    -3.313000000    -7.146000000     5.860000000
O    -0.241000000    -0.249000000     6.761000000
H    -0.079000000    -0.533000000     5.862000000
H    -0.940000000    -0.824000000     7.072000000
O     1.813000000    -2.153000000     7.702000000
H     1.651000000    -3.038000000     7.376000000
H     0.986000000    -1.691000000     7.565000000
O    -2.033000000    -1.634000000     8.421000000
H    -2.126000000    -1.040000000     9.166000000
H    -1.883000000    -2.493000000     8.817000000
O     1.412000000    -2.069000000    10.475000000
H     1.936000000    -2.854000000    10.635000000
H     1.393000000    -1.984000000     9.522000000
O     0.335000000    -3.604000000     4.204000000
H     1.140000000    -3.619000000     3.687000000
H     0.130000000    -2.674000000     4.301000000
O    -4.402000000     1.512000000     9.579000000
H    -3.734000000     1.880000000     9.002000000
H    -4.022000000     1.572000000    10.455000000
