215
-1485.37707
C     4.151000000    -1.277000000     2.018000000
H     4.560000000    -0.297000000     1.784000000
C     3.547000000    -1.999000000     0.967000000
C     3.124000000    -3.301000000     1.155000000
H     2.610000000    -3.805000000     0.341000000
C     3.631000000    -1.432000000    -0.389000000
O     4.722000000    -0.500000000    -0.620000000
H     2.705000000    -0.838000000    -0.421000000
O     3.685000000    -2.461000000    -1.393000000
C     2.818000000    -2.403000000    -2.444000000
C     1.759000000    -3.298000000    -2.449000000
H     1.679000000    -3.891000000    -1.542000000
C     0.780000000    -3.293000000    -3.428000000
O    -0.306000000    -4.092000000    -3.253000000
C     0.946000000    -2.402000000    -4.541000000
C    -0.271000000    -2.223000000    -5.448000000
H     0.021000000    -1.800000000    -6.411000000
C    -1.274000000    -1.217000000    -4.837000000
C    -1.201000000     0.212000000    -5.041000000
H    -0.400000000     0.507000000    -5.714000000
H    -0.843000000    -3.115000000    -5.713000000
C     2.113000000    -1.588000000    -4.587000000
H     2.349000000    -0.800000000    -5.297000000
C     3.034000000    -1.544000000    -3.518000000
C     4.216000000    -0.607000000    -3.590000000
H     4.412000000    -0.198000000    -4.584000000
H     5.012000000    -1.260000000    -3.225000000
C     4.151000000     0.630000000    -2.701000000
C     3.578000000     1.827000000    -3.235000000
H     3.304000000     1.908000000    -4.283000000
C     4.444000000     0.626000000    -1.321000000
C     4.288000000     1.719000000    -0.518000000
H     4.580000000     1.788000000     0.527000000
C     3.640000000     2.811000000    -1.053000000
O     3.275000000     3.915000000    -0.298000000
C     1.889000000     3.866000000     0.122000000
C     1.709000000     4.068000000     1.576000000
C     0.423000000     4.059000000     2.074000000
H    -0.448000000     4.018000000     1.425000000
C     2.735000000     3.871000000     2.506000000
H     3.744000000     3.722000000     2.129000000
O     1.156000000     4.862000000    -0.609000000
H     1.464000000     2.865000000    -0.046000000
C     3.243000000     2.892000000    -2.402000000
C     2.536000000     4.110000000    -2.988000000
H     2.670000000     4.273000000    -4.059000000
H     2.950000000     5.001000000    -2.512000000
C     1.001000000     4.020000000    -2.872000000
C     0.210000000     3.511000000    -3.914000000
H     0.602000000     3.191000000    -4.876000000
C     0.400000000     4.466000000    -1.678000000
C    -0.962000000     4.365000000    -1.517000000
H    -1.399000000     4.776000000    -0.611000000
C    -1.723000000     3.669000000    -2.457000000
O    -2.985000000     3.415000000    -2.036000000
C    -3.397000000     2.095000000    -1.742000000
C    -4.433000000     2.174000000    -0.651000000
C    -4.561000000     3.270000000     0.101000000
H    -3.898000000     4.131000000     0.081000000
C    -5.077000000     0.954000000    -0.301000000
H    -4.935000000    -0.011000000    -0.780000000
O    -3.946000000     1.410000000    -2.830000000
H    -2.505000000     1.548000000    -1.404000000
C    -1.146000000     3.270000000    -3.684000000
C    -2.045000000     2.589000000    -4.737000000
H    -1.631000000     2.798000000    -5.725000000
H    -3.012000000     3.096000000    -4.762000000
C    -2.138000000     1.118000000    -4.485000000
C    -3.098000000     0.614000000    -3.614000000
C    -3.218000000    -0.739000000    -3.453000000
H    -4.005000000    -1.218000000    -2.875000000
C    -2.325000000    -1.612000000    -4.047000000
O    -2.396000000    -2.980000000    -3.695000000
C    -1.427000000    -3.342000000    -2.668000000
H    -0.962000000    -2.455000000    -2.213000000
C    -2.014000000    -4.225000000    -1.578000000
C    -1.210000000    -5.236000000    -1.036000000
H    -0.222000000    -5.545000000    -1.369000000
C    -3.241000000    -3.991000000    -1.050000000
H    -3.888000000    -3.213000000    -1.446000000
C    -3.750000000    -4.752000000    -0.002000000
O    -5.049000000    -4.474000000     0.396000000
C    -2.952000000    -5.703000000     0.553000000
H    -3.261000000    -6.368000000     1.356000000
C    -1.715000000    -5.963000000     0.003000000
O    -0.960000000    -7.110000000     0.451000000
C     0.441000000    -7.018000000     0.589000000
C     0.957000000    -6.024000000     1.388000000
H     0.308000000    -5.292000000     1.861000000
C     1.228000000    -8.036000000     0.036000000
H     0.741000000    -8.860000000    -0.480000000
C     2.604000000    -8.075000000     0.285000000
H     3.293000000    -8.823000000    -0.097000000
C     3.142000000    -7.087000000     1.083000000
H     4.188000000    -7.017000000     1.373000000
C     2.329000000    -6.112000000     1.598000000
O     2.864000000    -5.240000000     2.573000000
C     3.258000000    -3.936000000     2.353000000
C     3.600000000    -3.169000000     3.430000000
H     3.543000000    -3.547000000     4.447000000
C     4.040000000    -1.859000000     3.248000000
O     4.522000000    -1.160000000     4.380000000
C     4.893000000     0.141000000     4.504000000
C     3.976000000     1.172000000     4.409000000
H     2.946000000     0.968000000     4.128000000
C     6.237000000     0.357000000     4.825000000
H     6.936000000    -0.472000000     4.745000000
C     6.630000000     1.655000000     5.189000000
H     7.684000000     1.892000000     5.306000000
C     5.718000000     2.712000000     5.092000000
H     5.999000000     3.733000000     5.336000000
C     4.380000000     2.449000000     4.665000000
O     3.503000000     3.527000000     4.756000000
C     2.444000000     3.684000000     3.881000000
C     1.144000000     3.725000000     4.364000000
H     1.015000000     3.675000000     5.442000000
C     0.125000000     3.936000000     3.432000000
O    -1.179000000     3.941000000     3.860000000
C    -2.208000000     4.762000000     3.562000000
C    -3.379000000     4.151000000     3.076000000
H    -3.419000000     3.069000000     3.180000000
C    -2.104000000     6.161000000     3.576000000
H    -1.201000000     6.663000000     3.914000000
C    -3.169000000     6.969000000     3.119000000
H    -3.068000000     8.051000000     3.154000000
C    -4.357000000     6.349000000     2.675000000
H    -5.189000000     6.924000000     2.276000000
C    -4.455000000     4.958000000     2.676000000
O    -5.533000000     4.452000000     1.988000000
C    -5.489000000     3.393000000     1.089000000
C    -6.276000000     2.250000000     1.356000000
H    -7.126000000     2.320000000     2.031000000
C    -5.985000000     1.050000000     0.729000000
O    -6.706000000    -0.080000000     1.125000000
C    -6.089000000    -1.183000000     1.645000000
C    -5.528000000    -1.134000000     2.912000000
H    -5.731000000    -0.314000000     3.596000000
C    -4.840000000    -2.218000000     3.390000000
H    -4.432000000    -2.242000000     4.397000000
C    -4.749000000    -3.353000000     2.596000000
H    -4.162000000    -4.192000000     2.959000000
C    -5.310000000    -3.388000000     1.306000000
C    -6.053000000    -2.341000000     0.829000000
H    -6.540000000    -2.305000000    -0.142000000
C    -0.944000000    -2.393000000     1.837000000
H    -1.492000000    -3.317000000     2.000000000
C    -1.252000000    -1.502000000     0.773000000
H    -1.950000000    -1.874000000     0.028000000
C    -0.602000000    -0.278000000     0.712000000
H    -0.824000000     0.401000000    -0.107000000
C     0.287000000     0.017000000     1.750000000
H     0.956000000     0.868000000     1.653000000
C     0.598000000    -0.822000000     2.757000000
H     1.342000000    -0.480000000     3.472000000
C    -0.046000000    -2.067000000     2.871000000
C     0.244000000    -2.939000000     4.089000000
O     0.724000000    -2.401000000     5.070000000
O    -0.001000000    -4.131000000     4.044000000
O    -3.651000000    -4.088000000     6.404000000
H    -3.651000000    -4.993000000     6.093000000
H    -2.771000000    -3.956000000     6.758000000
O    -1.971000000    -6.329000000     8.145000000
H    -2.216000000    -6.263000000     9.068000000
H    -1.545000000    -5.494000000     7.950000000
O    -0.885000000    -3.602000000     7.137000000
H    -0.614000000    -2.901000000     7.730000000
H    -0.366000000    -3.459000000     6.345000000
O    -1.403000000    -6.313000000     3.764000000
H    -0.776000000    -5.590000000     3.793000000
H    -1.308000000    -6.747000000     4.611000000
O    -3.382000000    -1.471000000     7.046000000
H    -3.028000000    -0.941000000     6.332000000
H    -3.119000000    -2.366000000     6.833000000
O     4.598000000    -6.634000000     4.654000000
H     4.419000000    -7.542000000     4.411000000
H     4.471000000    -6.140000000     3.844000000
O     1.818000000    -7.651000000     7.792000000
H     1.673000000    -7.281000000     8.663000000
H     1.910000000    -6.889000000     7.220000000
O    -2.751000000     0.636000000     2.472000000
H    -1.917000000     0.173000000     2.399000000
H    -3.383000000     0.061000000     2.040000000
O     0.926000000     0.351000000     6.215000000
H     1.026000000    -0.555000000     5.924000000
H     0.045000000     0.597000000     5.935000000
O     3.684000000    -5.208000000     6.560000000
H     4.011000000    -5.834000000     5.914000000
H     4.179000000    -5.404000000     7.355000000
O     1.072000000    -6.186000000     5.461000000
H     1.950000000    -5.806000000     5.493000000
H     0.498000000    -5.444000000     5.267000000
O    -4.206000000    -7.485000000     3.334000000
H    -4.320000000    -8.335000000     3.759000000
H    -3.318000000    -7.217000000     3.569000000
O     1.914000000     0.314000000     8.720000000
H     1.620000000    -0.577000000     8.909000000
H     1.708000000     0.444000000     7.794000000
O     3.502000000    -1.975000000     9.599000000
H     3.494000000    -2.098000000     8.650000000
H     4.427000000    -2.025000000     9.839000000
O     0.166000000    -2.020000000     9.187000000
H    -0.582000000    -2.130000000     9.775000000
H     0.785000000    -2.697000000     9.458000000
O     1.185000000    -8.533000000     3.907000000
H     0.554000000    -8.130000000     3.311000000
H     1.328000000    -7.875000000     4.587000000
O    -1.186000000    -7.799000000     5.895000000
H    -1.511000000    -7.181000000     6.550000000
H    -0.240000000    -7.822000000     6.038000000
O     3.086000000    -2.595000000     6.937000000
H     3.433000000    -3.487000000     6.901000000
H     2.273000000    -2.634000000     6.434000000
O    -2.049000000     0.341000000     5.355000000
H    -2.313000000     0.579000000     4.466000000
H    -2.334000000     1.077000000     5.896000000
