215
-1457.72871
C     5.016000000    -1.730000000     1.179000000
H     5.343000000    -0.694000000     1.225000000
C     4.296000000    -2.269000000     0.111000000
C     3.817000000    -3.632000000     0.160000000
H     3.174000000    -4.040000000    -0.615000000
C     3.943000000    -1.427000000    -1.127000000
O     4.785000000    -0.295000000    -1.246000000
H     2.864000000    -1.235000000    -1.027000000
O     4.146000000    -2.125000000    -2.372000000
C     3.038000000    -1.955000000    -3.184000000
C     1.977000000    -2.865000000    -3.104000000
H     1.992000000    -3.596000000    -2.299000000
C     0.838000000    -2.725000000    -3.866000000
O    -0.210000000    -3.624000000    -3.681000000
C     0.745000000    -1.542000000    -4.645000000
C    -0.528000000    -1.327000000    -5.501000000
H    -0.215000000    -0.676000000    -6.320000000
C    -1.637000000    -0.627000000    -4.620000000
C    -1.687000000     0.781000000    -4.597000000
H    -0.959000000     1.281000000    -5.230000000
H    -0.867000000    -2.306000000    -5.846000000
C     1.779000000    -0.599000000    -4.687000000
H     1.560000000     0.235000000    -5.348000000
C     2.937000000    -0.854000000    -3.967000000
C     4.039000000     0.133000000    -4.033000000
H     4.078000000     0.626000000    -5.006000000
H     5.041000000    -0.290000000    -3.929000000
C     3.694000000     1.192000000    -2.908000000
C     3.038000000     2.363000000    -3.089000000
H     2.543000000     2.534000000    -4.041000000
C     4.168000000     0.922000000    -1.579000000
C     3.891000000     1.789000000    -0.513000000
H     4.073000000     1.651000000     0.549000000
C     3.190000000     2.955000000    -0.789000000
O     2.731000000     3.768000000     0.235000000
C     1.327000000     3.705000000     0.567000000
C     1.167000000     3.603000000     2.084000000
C     0.143000000     4.281000000     2.760000000
H    -0.551000000     4.926000000     2.227000000
C     2.002000000     2.706000000     2.836000000
H     2.769000000     2.129000000     2.327000000
O     0.622000000     4.871000000     0.087000000
H     0.824000000     2.844000000     0.102000000
C     2.798000000     3.254000000    -2.090000000
C     1.964000000     4.488000000    -2.411000000
H     2.181000000     4.789000000    -3.438000000
H     2.329000000     5.304000000    -1.784000000
C     0.439000000     4.364000000    -2.241000000
C    -0.465000000     3.977000000    -3.295000000
H    -0.094000000     3.826000000    -4.306000000
C    -0.168000000     4.714000000    -1.020000000
C    -1.476000000     4.394000000    -0.796000000
H    -1.866000000     4.462000000     0.216000000
C    -2.275000000     3.846000000    -1.809000000
O    -3.556000000     3.411000000    -1.404000000
C    -3.763000000     1.981000000    -1.118000000
C    -4.529000000     1.882000000     0.179000000
C    -4.577000000     2.963000000     1.106000000
H    -4.133000000     3.918000000     0.840000000
C    -5.228000000     0.708000000     0.529000000
H    -5.269000000    -0.167000000    -0.115000000
O    -4.500000000     1.468000000    -2.345000000
H    -2.767000000     1.524000000    -1.011000000
C    -1.819000000     3.643000000    -3.104000000
C    -2.681000000     3.028000000    -4.172000000
H    -2.294000000     3.238000000    -5.171000000
H    -3.712000000     3.360000000    -4.037000000
C    -2.671000000     1.519000000    -3.957000000
C    -3.597000000     0.796000000    -3.203000000
C    -3.491000000    -0.602000000    -3.066000000
H    -4.049000000    -1.180000000    -2.334000000
C    -2.526000000    -1.308000000    -3.844000000
O    -2.335000000    -2.668000000    -3.514000000
C    -1.198000000    -3.059000000    -2.767000000
H    -0.633000000    -2.286000000    -2.225000000
C    -1.680000000    -4.073000000    -1.726000000
C    -0.870000000    -5.152000000    -1.378000000
H     0.046000000    -5.301000000    -1.944000000
C    -2.919000000    -3.894000000    -1.091000000
H    -3.552000000    -3.013000000    -1.142000000
C    -3.307000000    -4.823000000    -0.152000000
O    -4.478000000    -4.604000000     0.583000000
C    -2.504000000    -5.887000000     0.246000000
H    -2.756000000    -6.583000000     1.042000000
C    -1.346000000    -6.110000000    -0.461000000
O    -0.611000000    -7.183000000    -0.056000000
C     0.757000000    -7.182000000    -0.213000000
C     1.473000000    -6.448000000     0.694000000
H     1.052000000    -6.219000000     1.669000000
C     1.358000000    -7.879000000    -1.241000000
H     0.772000000    -8.413000000    -1.983000000
C     2.684000000    -7.736000000    -1.409000000
H     3.168000000    -8.258000000    -2.231000000
C     3.454000000    -7.033000000    -0.544000000
H     4.520000000    -6.939000000    -0.736000000
C     2.818000000    -6.253000000     0.466000000
O     3.579000000    -5.689000000     1.439000000
C     4.035000000    -4.362000000     1.296000000
C     4.635000000    -3.778000000     2.415000000
H     4.482000000    -4.283000000     3.365000000
C     5.170000000    -2.512000000     2.357000000
O     5.594000000    -1.886000000     3.444000000
C     5.409000000    -0.539000000     3.724000000
C     4.169000000    -0.057000000     4.119000000
H     3.355000000    -0.776000000     4.143000000
C     6.453000000     0.293000000     3.528000000
H     7.336000000    -0.164000000     3.087000000
C     6.320000000     1.665000000     3.865000000
H     7.157000000     2.347000000     3.733000000
C     5.140000000     2.194000000     4.414000000
H     4.989000000     3.237000000     4.680000000
C     3.999000000     1.295000000     4.525000000
O     2.796000000     1.738000000     5.013000000
C     1.913000000     2.570000000     4.236000000
C     0.990000000     3.356000000     4.842000000
H     0.826000000     3.388000000     5.916000000
C     0.058000000     4.152000000     4.146000000
O    -0.933000000     4.917000000     4.836000000
C    -2.130000000     5.299000000     4.272000000
C    -3.046000000     4.380000000     3.867000000
H    -2.701000000     3.357000000     3.995000000
C    -2.291000000     6.635000000     4.133000000
H    -1.515000000     7.236000000     4.599000000
C    -3.459000000     7.156000000     3.563000000
H    -3.521000000     8.207000000     3.295000000
C    -4.393000000     6.229000000     3.236000000
H    -5.293000000     6.427000000     2.658000000
C    -4.243000000     4.816000000     3.353000000
O    -5.278000000     3.950000000     3.175000000
C    -5.258000000     2.910000000     2.298000000
C    -5.962000000     1.742000000     2.603000000
H    -6.638000000     1.637000000     3.448000000
C    -6.008000000     0.674000000     1.694000000
O    -6.532000000    -0.537000000     2.089000000
C    -5.721000000    -1.616000000     2.308000000
C    -4.957000000    -1.673000000     3.483000000
H    -5.114000000    -0.881000000     4.211000000
C    -3.960000000    -2.675000000     3.602000000
H    -3.357000000    -2.772000000     4.501000000
C    -3.799000000    -3.697000000     2.602000000
H    -3.051000000    -4.483000000     2.659000000
C    -4.655000000    -3.614000000     1.511000000
C    -5.541000000    -2.598000000     1.301000000
H    -6.149000000    -2.611000000     0.400000000
C    -1.038000000    -1.840000000     0.941000000
H    -1.814000000    -2.496000000     1.326000000
C    -1.361000000    -1.031000000    -0.110000000
H    -2.352000000    -1.072000000    -0.555000000
C    -0.449000000    -0.134000000    -0.594000000
H    -0.681000000     0.575000000    -1.320000000
C     0.847000000    -0.100000000     0.040000000
H     1.580000000     0.628000000    -0.298000000
C     1.135000000    -0.908000000     1.145000000
H     2.115000000    -0.879000000     1.613000000
C     0.221000000    -1.814000000     1.598000000
C     0.478000000    -2.672000000     2.806000000
O     1.443000000    -2.422000000     3.522000000
O    -0.362000000    -3.449000000     3.123000000
O     2.015000000    -5.200000000     7.211000000
H     2.785000000    -5.271000000     6.647000000
H     1.424000000    -4.615000000     6.736000000
O    -0.904000000    -3.832000000     5.676000000
H    -0.628000000    -3.456000000     4.841000000
H    -0.684000000    -3.163000000     6.325000000
O    -2.228000000    -6.345000000     6.074000000
H    -1.812000000    -5.526000000     5.804000000
H    -1.508000000    -6.882000000     6.405000000
O     2.400000000    -2.197000000     6.220000000
H     2.277000000    -2.265000000     5.274000000
H     3.160000000    -2.748000000     6.404000000
O     5.630000000    -4.061000000     6.158000000
H     5.924000000    -3.916000000     5.259000000
H     5.360000000    -4.979000000     6.177000000
O     0.312000000    -9.669000000     1.963000000
H     1.246000000    -9.831000000     2.093000000
H     0.093000000    -8.997000000     2.610000000
O    -2.034000000     0.441000000     2.548000000
H    -2.809000000     0.837000000     2.150000000
H    -1.751000000    -0.219000000     1.916000000
O    -0.902000000     0.742000000     6.869000000
H    -0.418000000     0.139000000     7.433000000
H    -0.561000000     0.575000000     5.991000000
O     3.245000000    -7.475000000     3.881000000
H     3.025000000    -6.545000000     3.916000000
H     2.971000000    -7.753000000     3.006000000
O     0.023000000     0.150000000     4.299000000
H     0.473000000    -0.667000000     4.087000000
H    -0.594000000     0.277000000     3.578000000
O     6.277000000    -6.794000000     2.633000000
H     5.397000000    -6.422000000     2.581000000
H     6.531000000    -6.939000000     1.722000000
O    -2.082000000    -3.966000000     9.150000000
H    -1.752000000    -4.599000000     9.788000000
H    -1.310000000    -3.461000000     8.892000000
O    -0.170000000    -6.009000000     3.759000000
H    -1.048000000    -6.388000000     3.806000000
H    -0.314000000    -5.105000000     3.481000000
O    -4.761000000    -5.232000000     5.755000000
H    -4.535000000    -4.565000000     6.403000000
H    -4.050000000    -5.871000000     5.810000000
O     0.081000000    -1.967000000     7.609000000
H     0.945000000    -2.100000000     7.218000000
H     0.224000000    -2.080000000     8.549000000
O    -3.576000000    -7.142000000     3.237000000
H    -3.090000000    -7.780000000     3.759000000
H    -3.957000000    -6.545000000     3.881000000
O     2.598000000     0.323000000     7.287000000
H     2.577000000    -0.579000000     6.966000000
H     2.606000000     0.860000000     6.495000000
O     2.258000000    -4.945000000     4.213000000
H     1.447000000    -5.436000000     4.080000000
H     2.137000000    -4.141000000     3.707000000
O    -3.316000000     0.440000000     5.713000000
H    -2.885000000     0.781000000     4.929000000
H    -2.597000000     0.241000000     6.314000000
