215
-1460.18567
C     4.842000000     0.072000000     1.513000000
H     4.893000000     1.107000000     1.187000000
C     4.507000000    -0.967000000     0.618000000
C     4.454000000    -2.276000000     1.131000000
H     3.987000000    -3.049000000     0.525000000
C     3.990000000    -0.640000000    -0.825000000
O     4.595000000     0.548000000    -1.332000000
H     2.904000000    -0.506000000    -0.707000000
O     4.230000000    -1.791000000    -1.675000000
C     3.172000000    -2.104000000    -2.439000000
C     2.349000000    -3.189000000    -2.042000000
H     2.585000000    -3.875000000    -1.232000000
C     1.255000000    -3.469000000    -2.855000000
O     0.429000000    -4.506000000    -2.382000000
C     0.988000000    -2.801000000    -3.992000000
C    -0.185000000    -3.146000000    -4.852000000
H     0.000000000    -2.916000000    -5.904000000
C    -1.391000000    -2.379000000    -4.277000000
C    -1.826000000    -1.186000000    -4.721000000
H    -1.142000000    -0.667000000    -5.388000000
H    -0.415000000    -4.213000000    -4.862000000
C     1.857000000    -1.804000000    -4.428000000
H     1.641000000    -1.317000000    -5.376000000
C     2.881000000    -1.364000000    -3.649000000
C     3.696000000    -0.202000000    -4.131000000
H     3.686000000    -0.129000000    -5.221000000
H     4.761000000    -0.259000000    -3.895000000
C     3.246000000     1.058000000    -3.342000000
C     2.310000000     1.912000000    -3.958000000
H     1.975000000     1.711000000    -4.972000000
C     3.749000000     1.387000000    -2.104000000
C     3.368000000     2.574000000    -1.549000000
H     3.941000000     2.831000000    -0.661000000
C     2.443000000     3.410000000    -2.111000000
O     1.928000000     4.405000000    -1.327000000
C     0.700000000     4.181000000    -0.720000000
C     0.727000000     4.559000000     0.739000000
C    -0.521000000     4.785000000     1.464000000
H    -1.466000000     4.854000000     0.932000000
C     1.900000000     4.487000000     1.499000000
H     2.804000000     4.300000000     0.925000000
O    -0.400000000     4.802000000    -1.483000000
H     0.520000000     3.098000000    -0.793000000
C     1.840000000     3.055000000    -3.315000000
C     0.836000000     3.980000000    -3.999000000
H     1.129000000     4.012000000    -5.050000000
H     0.932000000     5.056000000    -3.839000000
C    -0.599000000     3.604000000    -3.600000000
C    -1.278000000     2.617000000    -4.304000000
H    -0.768000000     2.191000000    -5.164000000
C    -1.126000000     4.076000000    -2.424000000
C    -2.425000000     3.607000000    -2.023000000
H    -2.852000000     4.023000000    -1.114000000
C    -3.088000000     2.641000000    -2.746000000
O    -4.303000000     2.128000000    -2.204000000
C    -4.048000000     0.889000000    -1.513000000
C    -4.866000000     0.843000000    -0.177000000
C    -4.829000000     1.940000000     0.654000000
H    -4.318000000     2.775000000     0.183000000
C    -5.279000000    -0.329000000     0.324000000
H    -5.112000000    -1.247000000    -0.233000000
O    -4.491000000    -0.223000000    -2.286000000
H    -2.962000000     0.755000000    -1.400000000
C    -2.514000000     2.133000000    -3.918000000
C    -3.189000000     0.990000000    -4.615000000
H    -2.929000000     1.133000000    -5.666000000
H    -4.270000000     1.135000000    -4.545000000
C    -2.819000000    -0.447000000    -4.085000000
C    -3.538000000    -1.009000000    -3.068000000
C    -3.175000000    -2.256000000    -2.613000000
H    -3.689000000    -2.834000000    -1.849000000
C    -2.111000000    -2.924000000    -3.196000000
O    -1.813000000    -4.192000000    -2.663000000
C    -0.753000000    -4.147000000    -1.726000000
H    -0.593000000    -3.071000000    -1.562000000
C    -1.079000000    -4.970000000    -0.478000000
C    -0.049000000    -5.385000000     0.330000000
H     0.921000000    -5.020000000     0.000000000
C    -2.360000000    -5.082000000     0.075000000
H    -3.159000000    -4.592000000    -0.477000000
C    -2.520000000    -5.632000000     1.316000000
O    -3.715000000    -5.591000000     1.926000000
C    -1.470000000    -6.178000000     2.098000000
H    -1.692000000    -6.668000000     3.042000000
C    -0.236000000    -6.031000000     1.569000000
O     0.805000000    -6.450000000     2.344000000
C     2.048000000    -6.139000000     1.918000000
C     2.701000000    -5.062000000     2.537000000
H     2.173000000    -4.339000000     3.154000000
C     2.719000000    -6.985000000     1.114000000
H     2.193000000    -7.818000000     0.654000000
C     4.072000000    -6.847000000     0.837000000
H     4.541000000    -7.527000000     0.130000000
C     4.746000000    -5.753000000     1.413000000
H     5.830000000    -5.675000000     1.419000000
C     4.038000000    -4.864000000     2.303000000
O     4.747000000    -3.848000000     2.948000000
C     4.790000000    -2.570000000     2.441000000
C     5.156000000    -1.541000000     3.331000000
H     5.481000000    -1.665000000     4.361000000
C     5.181000000    -0.261000000     2.862000000
O     5.527000000     0.709000000     3.748000000
C     5.418000000     2.012000000     3.417000000
C     4.224000000     2.640000000     3.501000000
H     3.359000000     2.145000000     3.937000000
C     6.618000000     2.686000000     3.026000000
H     7.543000000     2.117000000     2.992000000
C     6.554000000     4.028000000     2.622000000
H     7.454000000     4.506000000     2.243000000
C     5.315000000     4.678000000     2.648000000
H     5.228000000     5.673000000     2.218000000
C     4.163000000     4.009000000     3.225000000
O     3.127000000     4.798000000     3.528000000
C     1.927000000     4.672000000     2.883000000
C     0.739000000     4.981000000     3.484000000
H     0.786000000     5.285000000     4.526000000
C    -0.506000000     4.944000000     2.827000000
O    -1.600000000     5.227000000     3.572000000
C    -2.887000000     5.284000000     3.192000000
C    -3.671000000     4.106000000     3.098000000
H    -3.216000000     3.159000000     3.377000000
C    -3.468000000     6.562000000     2.909000000
H    -2.867000000     7.467000000     2.931000000
C    -4.810000000     6.575000000     2.511000000
H    -5.371000000     7.485000000     2.314000000
C    -5.539000000     5.399000000     2.364000000
H    -6.609000000     5.406000000     2.172000000
C    -4.943000000     4.176000000     2.626000000
O    -5.752000000     3.074000000     2.649000000
C    -5.602000000     1.939000000     1.891000000
C    -6.149000000     0.759000000     2.295000000
H    -6.726000000     0.783000000     3.216000000
C    -6.027000000    -0.402000000     1.544000000
O    -6.391000000    -1.626000000     1.998000000
C    -5.440000000    -2.456000000     2.594000000
C    -4.725000000    -1.975000000     3.731000000
H    -4.909000000    -1.010000000     4.198000000
C    -3.730000000    -2.712000000     4.253000000
H    -3.222000000    -2.342000000     5.140000000
C    -3.316000000    -3.911000000     3.703000000
H    -2.607000000    -4.518000000     4.260000000
C    -4.022000000    -4.435000000     2.595000000
C    -5.084000000    -3.686000000     2.081000000
H    -5.584000000    -4.001000000     1.169000000
C    -0.526000000    -2.067000000     1.933000000
H    -0.873000000    -2.866000000     2.584000000
C    -1.121000000    -1.731000000     0.710000000
H    -1.994000000    -2.221000000     0.287000000
C    -0.411000000    -0.827000000    -0.118000000
H    -0.839000000    -0.548000000    -1.119000000
C     0.745000000    -0.169000000     0.299000000
H     1.340000000     0.554000000    -0.252000000
C     1.241000000    -0.459000000     1.595000000
H     2.029000000     0.166000000     2.007000000
C     0.617000000    -1.416000000     2.430000000
C     1.078000000    -1.613000000     3.795000000
O     1.739000000    -0.718000000     4.412000000
O     0.931000000    -2.612000000     4.449000000
O     4.344000000    -1.641000000     8.138000000
H     4.294000000    -1.224000000     7.278000000
H     4.527000000    -0.921000000     8.742000000
O     0.901000000    -6.695000000     8.053000000
H     1.027000000    -7.538000000     7.617000000
H     0.853000000    -6.060000000     7.338000000
O     3.082000000    -4.291000000     5.771000000
H     3.770000000    -4.198000000     6.430000000
H     3.026000000    -3.429000000     5.359000000
O    -0.260000000    -4.499000000     9.680000000
H    -0.087000000    -5.373000000     9.330000000
H    -0.811000000    -4.080000000     9.019000000
O     4.490000000    -7.212000000     5.989000000
H     5.345000000    -6.808000000     5.841000000
H     3.863000000    -6.583000000     5.632000000
O     3.996000000     0.037000000     6.050000000
H     3.211000000    -0.088000000     5.516000000
H     4.701000000     0.156000000     5.414000000
O    -0.107000000    -8.277000000     4.407000000
H     0.635000000    -8.410000000     3.818000000
H    -0.101000000    -7.337000000     4.592000000
O    -2.286000000     0.473000000     2.581000000
H    -3.001000000     0.679000000     1.979000000
H    -1.994000000    -0.400000000     2.318000000
O     0.770000000     0.650000000     6.667000000
H     0.727000000     0.519000000     5.720000000
H     1.281000000    -0.093000000     6.988000000
O    -1.475000000     2.517000000     7.746000000
H    -0.664000000     2.183000000     7.362000000
H    -2.164000000     1.978000000     7.357000000
O     0.039000000     1.789000000     4.108000000
H    -0.813000000     1.795000000     3.671000000
H     0.471000000     1.002000000     3.779000000
O    -1.772000000    -1.733000000     7.186000000
H    -0.816000000    -1.677000000     7.204000000
H    -1.963000000    -2.636000000     7.439000000
O     5.535000000    -4.254000000     7.235000000
H     6.243000000    -4.650000000     7.745000000
H     5.087000000    -3.678000000     7.855000000
O     2.413000000    -1.025000000    10.225000000
H     2.909000000    -1.292000000    10.998000000
H     3.008000000    -1.185000000     9.492000000
O     2.271000000     3.263000000     6.417000000
H     2.024000000     2.346000000     6.303000000
H     1.747000000     3.735000000     5.771000000
O     0.516000000    -5.240000000     5.771000000
H     1.371000000    -4.851000000     5.954000000
H    -0.018000000    -4.508000000     5.463000000
O    -2.216000000    -4.667000000     7.312000000
H    -3.084000000    -4.560000000     6.922000000
H    -1.871000000    -5.466000000     6.913000000
O    -2.368000000     0.780000000     6.039000000
H    -1.528000000     0.946000000     5.610000000
H    -2.242000000    -0.048000000     6.501000000
O     0.889000000    -2.289000000     7.067000000
H     1.722000000    -2.398000000     7.525000000
H     1.125000000    -2.280000000     6.140000000
