215
-1427.18732
C     4.574000000    -0.285000000     2.340000000
H     4.811000000     0.748000000     2.102000000
C     4.309000000    -1.183000000     1.359000000
C     3.978000000    -2.547000000     1.668000000
H     3.854000000    -3.214000000     0.819000000
C     4.088000000    -0.755000000    -0.116000000
O     4.913000000     0.361000000    -0.475000000
H     3.049000000    -0.447000000    -0.304000000
O     4.430000000    -1.805000000    -1.016000000
C     3.641000000    -2.041000000    -2.122000000
C     2.698000000    -3.139000000    -2.105000000
H     2.735000000    -3.859000000    -1.290000000
C     1.717000000    -3.178000000    -3.077000000
O     0.677000000    -4.020000000    -2.962000000
C     1.675000000    -2.262000000    -4.104000000
C     0.551000000    -2.298000000    -5.179000000
H     0.881000000    -1.872000000    -6.128000000
C    -0.764000000    -1.599000000    -4.784000000
C    -1.020000000    -0.305000000    -5.163000000
H    -0.191000000     0.222000000    -5.627000000
H     0.336000000    -3.324000000    -5.484000000
C     2.663000000    -1.230000000    -4.177000000
H     2.661000000    -0.664000000    -5.105000000
C     3.606000000    -1.119000000    -3.184000000
C     4.537000000     0.063000000    -3.309000000
H     4.787000000     0.332000000    -4.337000000
H     5.451000000    -0.251000000    -2.801000000
C     4.058000000     1.283000000    -2.522000000
C     3.241000000     2.276000000    -3.071000000
H     2.950000000     2.114000000    -4.105000000
C     4.354000000     1.424000000    -1.131000000
C     3.692000000     2.335000000    -0.422000000
H     3.851000000     2.351000000     0.653000000
C     3.025000000     3.355000000    -0.964000000
O     2.378000000     4.236000000    -0.120000000
C     0.936000000     4.029000000     0.085000000
C     0.606000000     4.246000000     1.557000000
C    -0.744000000     4.329000000     1.920000000
H    -1.527000000     4.266000000     1.169000000
C     1.656000000     4.230000000     2.504000000
H     2.717000000     4.203000000     2.268000000
O     0.055000000     4.843000000    -0.746000000
H     0.677000000     2.977000000    -0.104000000
C     2.765000000     3.308000000    -2.366000000
C     1.814000000     4.289000000    -2.987000000
H     2.134000000     4.386000000    -4.027000000
H     1.937000000     5.301000000    -2.595000000
C     0.361000000     3.858000000    -2.970000000
C    -0.224000000     3.106000000    -3.981000000
H     0.332000000     2.971000000    -4.906000000
C    -0.487000000     4.312000000    -1.892000000
C    -1.804000000     3.883000000    -1.827000000
H    -2.489000000     4.116000000    -1.016000000
C    -2.385000000     3.077000000    -2.821000000
O    -3.634000000     2.560000000    -2.571000000
C    -3.793000000     1.241000000    -2.103000000
C    -4.786000000     0.991000000    -1.009000000
C    -5.117000000     2.094000000    -0.222000000
H    -4.754000000     3.070000000    -0.533000000
C    -5.315000000    -0.325000000    -0.735000000
H    -5.072000000    -1.231000000    -1.284000000
O    -4.040000000     0.460000000    -3.228000000
H    -2.806000000     0.986000000    -1.691000000
C    -1.602000000     2.759000000    -3.929000000
C    -2.179000000     1.928000000    -5.034000000
H    -1.641000000     2.107000000    -5.968000000
H    -3.209000000     2.123000000    -5.340000000
C    -2.102000000     0.424000000    -4.673000000
C    -3.016000000    -0.224000000    -3.868000000
C    -2.833000000    -1.563000000    -3.621000000
H    -3.483000000    -2.120000000    -2.950000000
C    -1.696000000    -2.277000000    -4.006000000
O    -1.502000000    -3.520000000    -3.381000000
C    -0.536000000    -3.576000000    -2.400000000
H    -0.261000000    -2.592000000    -1.994000000
C    -1.026000000    -4.522000000    -1.284000000
C    -0.144000000    -5.385000000    -0.563000000
H     0.908000000    -5.293000000    -0.818000000
C    -2.298000000    -4.582000000    -0.838000000
H    -3.029000000    -3.930000000    -1.310000000
C    -2.740000000    -5.515000000     0.089000000
O    -4.075000000    -5.470000000     0.422000000
C    -1.904000000    -6.411000000     0.719000000
H    -2.262000000    -7.099000000     1.480000000
C    -0.564000000    -6.258000000     0.494000000
O     0.355000000    -7.038000000     1.151000000
C     1.703000000    -6.653000000     1.289000000
C     1.984000000    -5.580000000     2.134000000
H     1.178000000    -4.931000000     2.465000000
C     2.726000000    -7.543000000     0.858000000
H     2.480000000    -8.463000000     0.334000000
C     4.011000000    -7.261000000     1.177000000
H     4.772000000    -7.990000000     0.909000000
C     4.334000000    -6.127000000     2.044000000
H     5.367000000    -6.041000000     2.370000000
C     3.277000000    -5.264000000     2.440000000
O     3.581000000    -4.264000000     3.350000000
C     4.010000000    -2.980000000     2.985000000
C     4.347000000    -2.061000000     3.964000000
H     4.327000000    -2.299000000     5.024000000
C     4.637000000    -0.692000000     3.682000000
O     4.843000000     0.169000000     4.781000000
C     4.772000000     1.513000000     4.788000000
C     3.556000000     2.175000000     4.837000000
H     2.657000000     1.567000000     4.902000000
C     5.874000000     2.319000000     4.571000000
H     6.842000000     1.839000000     4.457000000
C     5.871000000     3.695000000     4.385000000
H     6.805000000     4.225000000     4.213000000
C     4.593000000     4.299000000     4.463000000
H     4.524000000     5.367000000     4.273000000
C     3.475000000     3.551000000     4.734000000
O     2.285000000     4.175000000     4.826000000
C     1.320000000     4.170000000     3.854000000
C     0.011000000     4.366000000     4.224000000
H    -0.148000000     4.305000000     5.297000000
C    -0.993000000     4.400000000     3.303000000
O    -2.269000000     4.421000000     3.781000000
C    -3.420000000     4.671000000     2.988000000
C    -4.316000000     3.676000000     2.589000000
H    -4.184000000     2.640000000     2.890000000
C    -3.641000000     6.017000000     2.634000000
H    -3.000000000     6.844000000     2.929000000
C    -4.779000000     6.371000000     1.881000000
H    -4.977000000     7.351000000     1.455000000
C    -5.726000000     5.422000000     1.460000000
H    -6.633000000     5.712000000     0.936000000
C    -5.463000000     4.077000000     1.894000000
O    -6.362000000     3.034000000     1.603000000
C    -5.974000000     1.962000000     0.850000000
C    -6.635000000     0.794000000     1.057000000
H    -7.385000000     0.649000000     1.831000000
C    -6.272000000    -0.337000000     0.311000000
O    -6.743000000    -1.623000000     0.758000000
C    -5.938000000    -2.508000000     1.353000000
C    -5.398000000    -2.187000000     2.602000000
H    -5.686000000    -1.308000000     3.172000000
C    -4.589000000    -3.136000000     3.191000000
H    -4.240000000    -2.953000000     4.203000000
C    -4.180000000    -4.258000000     2.485000000
H    -3.524000000    -5.006000000     2.923000000
C    -4.642000000    -4.461000000     1.171000000
C    -5.517000000    -3.547000000     0.586000000
H    -5.891000000    -3.599000000    -0.433000000
C    -0.283000000    -2.105000000     1.792000000
H    -0.710000000    -3.096000000     1.928000000
C    -0.503000000    -1.434000000     0.612000000
H    -1.150000000    -1.843000000    -0.160000000
C     0.196000000    -0.194000000     0.480000000
H     0.007000000     0.315000000    -0.522000000
C     0.968000000     0.359000000     1.497000000
H     1.495000000     1.304000000     1.396000000
C     1.134000000    -0.351000000     2.663000000
H     1.793000000     0.027000000     3.440000000
C     0.525000000    -1.584000000     2.864000000
C     0.624000000    -2.337000000     4.216000000
O     1.100000000    -1.676000000     5.106000000
O     0.116000000    -3.418000000     4.327000000
O    -0.380000000    -8.114000000     6.524000000
H    -0.249000000    -7.174000000     6.398000000
H    -0.062000000    -8.511000000     5.713000000
O    -3.752000000    -0.805000000     8.873000000
H    -3.270000000    -0.871000000     8.049000000
H    -3.149000000    -0.360000000     9.468000000
O     3.205000000    -7.768000000     6.323000000
H     2.685000000    -7.672000000     5.525000000
H     3.838000000    -7.052000000     6.284000000
O     5.083000000    -5.957000000     5.263000000
H     4.610000000    -5.416000000     4.630000000
H     5.992000000    -5.934000000     4.965000000
O    -3.630000000    -5.551000000     7.737000000
H    -2.707000000    -5.465000000     7.977000000
H    -4.082000000    -4.916000000     8.293000000
O     3.045000000    -1.992000000     7.298000000
H     2.504000000    -2.006000000     6.509000000
H     2.438000000    -1.757000000     8.001000000
O     5.064000000    -0.627000000     8.657000000
H     4.565000000     0.125000000     8.977000000
H     4.448000000    -1.105000000     8.102000000
O    -2.998000000    -0.248000000     2.450000000
H    -3.540000000    -0.510000000     1.706000000
H    -2.138000000    -0.625000000     2.264000000
O    -1.602000000     1.276000000     8.439000000
H    -0.796000000     0.776000000     8.565000000
H    -1.783000000     1.659000000     9.297000000
O     0.058000000     0.753000000     5.869000000
H    -0.846000000     0.845000000     5.566000000
H     0.370000000    -0.049000000     5.450000000
O    -1.445000000    -8.295000000     3.773000000
H    -2.050000000    -7.553000000     3.772000000
H    -1.925000000    -8.995000000     3.330000000
O     2.484000000    -5.070000000     8.043000000
H     2.641000000    -4.167000000     7.766000000
H     2.211000000    -5.521000000     7.244000000
O     1.215000000    -1.914000000     9.338000000
H     1.785000000    -2.130000000    10.076000000
H     0.527000000    -1.367000000     9.719000000
O     1.063000000    -5.579000000     5.522000000
H     1.389000000    -6.177000000     4.850000000
H     0.599000000    -4.899000000     5.033000000
O    -0.959000000    -4.729000000     8.393000000
H    -0.746000000    -4.111000000     7.694000000
H    -0.652000000    -4.301000000     9.193000000
O    -2.701000000    -1.383000000     6.176000000
H    -3.337000000    -2.091000000     6.276000000
H    -1.849000000    -1.817000000     6.232000000
O     1.212000000     2.875000000     7.476000000
H     2.035000000     3.130000000     7.059000000
H     0.964000000     2.060000000     7.038000000
O    -0.311000000    -2.532000000     7.109000000
H     0.214000000    -2.155000000     7.815000000
H     0.147000000    -2.278000000     6.308000000
O    -3.638000000     0.895000000     5.093000000
H    -3.636000000     0.629000000     4.174000000
H    -3.109000000     0.231000000     5.536000000
