215
-1451.77756
C    -1.826000000    -0.117000000    -5.315000000
H    -2.305000000    -1.028000000    -4.967000000
C    -0.468000000     0.141000000    -5.060000000
C     0.021000000     1.342000000    -5.485000000
H     1.049000000     1.608000000    -5.254000000
C     0.401000000    -0.847000000    -4.261000000
O     0.143000000    -2.185000000    -4.684000000
H     0.091000000    -0.716000000    -3.214000000
O     1.806000000    -0.532000000    -4.451000000
C     2.840000000    -0.611000000    -3.470000000
C     3.286000000     0.592000000    -2.887000000
H     2.988000000     1.512000000    -3.384000000
C     4.176000000     0.572000000    -1.846000000
O     4.484000000     1.720000000    -1.183000000
C     4.626000000    -0.675000000    -1.432000000
C     5.447000000    -0.830000000    -0.103000000
H     6.077000000    -1.707000000    -0.267000000
C     4.702000000    -0.859000000     1.188000000
C     4.350000000    -2.055000000     1.835000000
H     4.586000000    -3.008000000     1.369000000
H     6.012000000     0.093000000    -0.247000000
C     4.205000000    -1.856000000    -2.039000000
H     4.627000000    -2.796000000    -1.694000000
C     3.325000000    -1.883000000    -3.064000000
C     2.814000000    -3.159000000    -3.700000000
H     3.504000000    -3.952000000    -3.404000000
H     2.892000000    -3.173000000    -4.789000000
C     1.392000000    -3.553000000    -3.147000000
C     1.442000000    -4.231000000    -1.976000000
H     2.373000000    -4.531000000    -1.502000000
C     0.173000000    -3.128000000    -3.678000000
C    -0.998000000    -3.319000000    -2.895000000
H    -1.906000000    -2.837000000    -3.247000000
C    -0.979000000    -4.112000000    -1.747000000
O    -2.158000000    -4.398000000    -1.010000000
C    -2.326000000    -3.505000000     0.129000000
C    -3.594000000    -2.726000000     0.103000000
C    -4.420000000    -2.827000000     1.294000000
H    -4.159000000    -3.400000000     2.179000000
C    -4.016000000    -1.821000000    -0.857000000
H    -3.407000000    -1.574000000    -1.724000000
O    -2.143000000    -4.311000000     1.294000000
H    -1.501000000    -2.777000000     0.110000000
C     0.281000000    -4.523000000    -1.276000000
C     0.212000000    -5.345000000     0.031000000
H     1.109000000    -5.967000000     0.020000000
H    -0.627000000    -6.039000000    -0.053000000
C     0.199000000    -4.705000000     1.413000000
C     1.474000000    -4.563000000     1.947000000
H     2.347000000    -4.930000000     1.414000000
C    -1.019000000    -4.287000000     2.033000000
C    -0.850000000    -3.488000000     3.162000000
H    -1.734000000    -3.041000000     3.608000000
C     0.426000000    -3.178000000     3.605000000
O     0.484000000    -2.113000000     4.491000000
C     0.786000000    -0.750000000     4.061000000
C    -0.069000000     0.351000000     4.808000000
C    -1.392000000     0.013000000     5.072000000
H    -1.715000000    -1.024000000     5.032000000
C     0.347000000     1.599000000     5.002000000
H     1.311000000     1.942000000     4.634000000
O     2.249000000    -0.629000000     4.457000000
H     0.674000000    -0.753000000     2.967000000
C     1.552000000    -3.751000000     3.122000000
C     2.928000000    -3.312000000     3.593000000
H     3.669000000    -4.045000000     3.268000000
H     2.985000000    -3.184000000     4.676000000
C     3.470000000    -2.057000000     2.920000000
C     3.075000000    -0.813000000     3.444000000
C     3.569000000     0.407000000     2.988000000
H     3.229000000     1.345000000     3.418000000
C     4.302000000     0.378000000     1.798000000
O     4.507000000     1.579000000     1.256000000
C     3.778000000     1.897000000     0.065000000
H     2.914000000     1.217000000     0.024000000
C     3.222000000     3.289000000     0.049000000
C     2.748000000     3.823000000    -1.196000000
H     2.862000000     3.250000000    -2.113000000
C     3.263000000     4.087000000     1.189000000
H     3.728000000     3.630000000     2.058000000
C     2.704000000     5.364000000     1.127000000
O     2.591000000     6.136000000     2.244000000
C     2.150000000     5.832000000    -0.075000000
H     1.620000000     6.779000000    -0.027000000
C     2.120000000     5.085000000    -1.201000000
O     1.408000000     5.559000000    -2.341000000
C     1.637000000     5.028000000    -3.596000000
C     0.601000000     4.467000000    -4.352000000
H    -0.367000000     4.403000000    -3.862000000
C     2.911000000     5.133000000    -4.104000000
H     3.762000000     5.506000000    -3.541000000
C     3.159000000     4.790000000    -5.430000000
H     4.179000000     4.916000000    -5.785000000
C     2.093000000     4.315000000    -6.217000000
H     2.225000000     4.135000000    -7.280000000
C     0.810000000     4.135000000    -5.693000000
O    -0.130000000     3.482000000    -6.492000000
C    -0.733000000     2.302000000    -6.124000000
C    -2.087000000     2.073000000    -6.443000000
H    -2.605000000     2.857000000    -6.989000000
C    -2.631000000     0.865000000    -5.962000000
O    -3.983000000     0.592000000    -6.171000000
C    -4.764000000    -0.157000000    -5.270000000
C    -4.767000000     0.132000000    -3.915000000
H    -4.120000000     0.938000000    -3.577000000
C    -5.760000000    -1.026000000    -5.763000000
H    -5.854000000    -1.225000000    -6.827000000
C    -6.604000000    -1.739000000    -4.924000000
H    -7.314000000    -2.418000000    -5.390000000
C    -6.590000000    -1.491000000    -3.539000000
H    -7.346000000    -1.983000000    -2.931000000
C    -5.615000000    -0.574000000    -3.057000000
O    -5.652000000    -0.244000000    -1.711000000
C    -5.242000000    -1.145000000    -0.787000000
C    -5.999000000    -1.256000000     0.390000000
H    -6.953000000    -0.740000000     0.459000000
C    -5.605000000    -2.106000000     1.401000000
O    -6.355000000    -2.032000000     2.595000000
C    -5.778000000    -1.805000000     3.802000000
C    -5.077000000    -0.569000000     4.026000000
H    -5.168000000     0.278000000     3.351000000
C    -5.586000000    -2.854000000     4.598000000
H    -6.090000000    -3.766000000     4.290000000
C    -4.701000000    -2.824000000     5.697000000
H    -4.574000000    -3.697000000     6.332000000
C    -4.043000000    -1.607000000     6.045000000
H    -3.442000000    -1.479000000     6.941000000
C    -4.310000000    -0.501000000     5.242000000
O    -3.686000000     0.697000000     5.527000000
C    -2.358000000     1.006000000     5.347000000
C    -1.875000000     2.288000000     5.581000000
H    -2.589000000     3.061000000     5.851000000
C    -0.582000000     2.641000000     5.400000000
O    -0.139000000     3.965000000     5.560000000
C     1.118000000     4.463000000     5.122000000
C     2.236000000     4.351000000     5.973000000
H     2.073000000     3.806000000     6.899000000
C     3.472000000     4.907000000     5.630000000
H     4.352000000     4.818000000     6.262000000
C     3.509000000     5.616000000     4.428000000
H     4.480000000     5.884000000     4.017000000
C     2.391000000     5.674000000     3.552000000
C     1.223000000     5.047000000     3.909000000
H     0.359000000     5.123000000     3.255000000
C    -1.504000000     0.689000000     0.623000000
H    -2.409000000     1.057000000     1.100000000
C    -0.919000000    -0.572000000     1.013000000
H    -1.450000000    -1.081000000     1.814000000
C     0.256000000    -0.985000000     0.467000000
H     0.746000000    -1.904000000     0.754000000
C     0.802000000    -0.272000000    -0.636000000
H     1.738000000    -0.671000000    -1.018000000
C     0.161000000     0.815000000    -1.120000000
H     0.632000000     1.321000000    -1.959000000
C    -1.006000000     1.351000000    -0.501000000
C    -1.748000000     2.593000000    -1.003000000
O    -1.493000000     3.082000000    -2.070000000
O    -2.707000000     3.059000000    -0.386000000
O    -7.525000000     1.151000000     4.006000000
H    -7.948000000     1.901000000     4.424000000
H    -6.933000000     1.538000000     3.361000000
O    -3.930000000     8.933000000    -3.970000000
H    -4.051000000     7.984000000    -4.003000000
H    -3.968000000     9.147000000    -3.038000000
O    -3.392000000     9.236000000    -0.996000000
H    -3.977000000     8.564000000    -0.647000000
H    -2.514000000     8.935000000    -0.761000000
O    -6.762000000     6.501000000    -0.377000000
H    -6.754000000     6.452000000     0.578000000
H    -6.242000000     5.749000000    -0.661000000
O    -4.075000000     5.443000000     3.339000000
H    -4.264000000     5.368000000     2.404000000
H    -3.132000000     5.298000000     3.406000000
O    -1.041000000     7.900000000     0.291000000
H    -1.001000000     7.315000000    -0.466000000
H    -0.404000000     8.587000000     0.096000000
O    -4.215000000     6.829000000    -2.095000000
H    -4.762000000     6.217000000    -1.603000000
H    -3.322000000     6.510000000    -1.964000000
O    -1.304000000     5.831000000    -1.869000000
H    -0.543000000     6.005000000    -2.422000000
H    -1.542000000     4.926000000    -2.067000000
O     0.151000000     8.541000000    -3.130000000
H    -0.759000000     8.250000000    -3.074000000
H     0.401000000     8.374000000    -4.039000000
O    -1.528000000     5.402000000     1.694000000
H    -1.399000000     6.350000000     1.659000000
H    -1.505000000     5.123000000     0.779000000
O    -6.369000000     1.932000000     1.691000000
H    -5.488000000     2.288000000     1.804000000
H    -6.658000000     2.272000000     0.843000000
O    -2.906000000     4.082000000    -3.965000000
H    -2.452000000     3.648000000    -3.244000000
H    -3.835000000     3.980000000    -3.759000000
O    -2.150000000     5.495000000    -6.205000000
H    -1.305000000     5.107000000    -6.432000000
H    -2.484000000     4.944000000    -5.497000000
O    -4.906000000     4.487000000    -0.668000000
H    -5.504000000     3.740000000    -0.651000000
H    -4.034000000     4.094000000    -0.713000000
O    -5.594000000     3.035000000    -7.469000000
H    -6.445000000     3.105000000    -7.038000000
H    -4.979000000     2.853000000    -6.759000000
O    -5.428000000     3.178000000    -3.455000000
H    -5.439000000     2.338000000    -3.912000000
H    -6.139000000     3.678000000    -3.855000000
O    -4.358000000     8.555000000     1.844000000
H    -4.150000000     9.488000000     1.898000000
H    -3.530000000     8.114000000     2.036000000
O    -3.979000000     2.905000000     1.881000000
H    -3.745000000     2.920000000     0.953000000
H    -3.143000000     2.811000000     2.337000000
O    -7.010000000     2.632000000    -0.835000000
H    -6.579000000     1.914000000    -1.298000000
H    -7.366000000     3.186000000    -1.530000000
