215
-1453.49920
C     5.381000000    -0.349000000     1.457000000
H     5.554000000     0.665000000     1.106000000
C     4.929000000    -1.339000000     0.608000000
C     4.704000000    -2.608000000     1.092000000
H     4.231000000    -3.397000000     0.514000000
C     4.324000000    -0.985000000    -0.799000000
O     4.926000000     0.307000000    -1.183000000
H     3.253000000    -0.921000000    -0.553000000
O     4.482000000    -1.970000000    -1.914000000
C     3.408000000    -2.139000000    -2.661000000
C     2.534000000    -3.113000000    -2.202000000
H     2.843000000    -3.731000000    -1.363000000
C     1.306000000    -3.249000000    -2.885000000
O     0.535000000    -4.224000000    -2.470000000
C     1.107000000    -2.565000000    -4.132000000
C    -0.030000000    -2.881000000    -4.970000000
H     0.135000000    -2.607000000    -6.014000000
C    -1.265000000    -2.118000000    -4.463000000
C    -1.560000000    -0.865000000    -4.973000000
H    -0.971000000    -0.383000000    -5.750000000
H    -0.243000000    -3.950000000    -5.039000000
C     1.950000000    -1.519000000    -4.485000000
H     1.714000000    -0.867000000    -5.322000000
C     3.123000000    -1.334000000    -3.737000000
C     3.953000000    -0.079000000    -4.010000000
H     3.958000000     0.261000000    -5.048000000
H     4.993000000    -0.302000000    -3.764000000
C     3.506000000     0.999000000    -3.110000000
C     2.745000000     2.086000000    -3.604000000
H     2.349000000     2.055000000    -4.616000000
C     4.102000000     1.275000000    -1.845000000
C     3.755000000     2.372000000    -1.051000000
H     4.013000000     2.514000000    -0.005000000
C     2.873000000     3.278000000    -1.590000000
O     2.236000000     4.182000000    -0.726000000
C     0.870000000     3.898000000    -0.297000000
C     0.696000000     4.029000000     1.213000000
C    -0.550000000     4.289000000     1.764000000
H    -1.435000000     4.388000000     1.142000000
C     1.774000000     3.843000000     2.082000000
H     2.724000000     3.559000000     1.636000000
O    -0.114000000     4.627000000    -0.987000000
H     0.607000000     2.839000000    -0.435000000
C     2.347000000     3.120000000    -2.862000000
C     1.269000000     3.983000000    -3.521000000
H     1.381000000     3.967000000    -4.607000000
H     1.404000000     5.015000000    -3.190000000
C    -0.195000000     3.659000000    -3.231000000
C    -0.802000000     2.902000000    -4.226000000
H    -0.289000000     2.639000000    -5.147000000
C    -0.819000000     4.051000000    -2.053000000
C    -2.126000000     3.678000000    -1.862000000
H    -2.693000000     3.896000000    -0.960000000
C    -2.816000000     2.910000000    -2.829000000
O    -4.066000000     2.430000000    -2.487000000
C    -4.109000000     1.140000000    -1.849000000
C    -5.066000000     1.172000000    -0.648000000
C    -5.307000000     2.379000000     0.097000000
H    -4.844000000     3.317000000    -0.200000000
C    -5.657000000    -0.023000000    -0.249000000
H    -5.382000000    -0.920000000    -0.796000000
O    -4.472000000     0.103000000    -2.871000000
H    -3.158000000     0.837000000    -1.386000000
C    -2.127000000     2.426000000    -3.952000000
C    -2.731000000     1.395000000    -4.868000000
H    -2.361000000     1.556000000    -5.883000000
H    -3.799000000     1.619000000    -4.913000000
C    -2.557000000    -0.049000000    -4.421000000
C    -3.419000000    -0.660000000    -3.464000000
C    -3.200000000    -2.025000000    -3.089000000
H    -3.837000000    -2.336000000    -2.265000000
C    -2.131000000    -2.716000000    -3.506000000
O    -1.758000000    -3.936000000    -2.916000000
C    -0.745000000    -3.753000000    -1.899000000
H    -0.680000000    -2.677000000    -1.679000000
C    -1.127000000    -4.464000000    -0.613000000
C    -0.119000000    -5.075000000     0.132000000
H     0.930000000    -5.053000000    -0.149000000
C    -2.366000000    -4.414000000    -0.059000000
H    -3.203000000    -4.125000000    -0.689000000
C    -2.643000000    -4.937000000     1.198000000
O    -3.901000000    -5.086000000     1.607000000
C    -1.637000000    -5.505000000     2.016000000
H    -1.833000000    -5.961000000     2.983000000
C    -0.390000000    -5.480000000     1.462000000
O     0.529000000    -6.204000000     2.196000000
C     1.894000000    -6.070000000     1.954000000
C     2.721000000    -5.119000000     2.529000000
H     2.294000000    -4.343000000     3.160000000
C     2.502000000    -7.013000000     1.088000000
H     1.909000000    -7.755000000     0.559000000
C     3.897000000    -7.022000000     0.945000000
H     4.267000000    -7.828000000     0.316000000
C     4.667000000    -6.026000000     1.561000000
H     5.741000000    -5.915000000     1.436000000
C     4.054000000    -5.131000000     2.346000000
O     4.754000000    -4.165000000     2.940000000
C     5.059000000    -2.889000000     2.427000000
C     5.561000000    -1.964000000     3.301000000
H     5.877000000    -2.237000000     4.304000000
C     5.725000000    -0.656000000     2.807000000
O     6.243000000     0.268000000     3.610000000
C     5.716000000     1.553000000     3.806000000
C     4.304000000     1.858000000     3.882000000
H     3.582000000     1.061000000     3.723000000
C     6.640000000     2.573000000     3.855000000
H     7.691000000     2.313000000     3.763000000
C     6.177000000     3.884000000     4.078000000
H     6.859000000     4.726000000     4.165000000
C     4.815000000     4.169000000     4.144000000
H     4.367000000     5.146000000     4.304000000
C     3.873000000     3.159000000     4.159000000
O     2.551000000     3.420000000     4.415000000
C     1.588000000     3.856000000     3.524000000
C     0.333000000     4.129000000     4.028000000
H     0.153000000     4.046000000     5.097000000
C    -0.726000000     4.256000000     3.165000000
O    -1.991000000     4.422000000     3.735000000
C    -3.106000000     4.814000000     2.995000000
C    -4.184000000     3.973000000     3.005000000
H    -4.075000000     2.970000000     3.410000000
C    -3.213000000     6.086000000     2.514000000
H    -2.336000000     6.716000000     2.643000000
C    -4.349000000     6.462000000     1.835000000
H    -4.403000000     7.446000000     1.378000000
C    -5.388000000     5.518000000     1.690000000
H    -6.279000000     5.763000000     1.118000000
C    -5.350000000     4.308000000     2.329000000
O    -6.300000000     3.343000000     2.163000000
C    -6.045000000     2.254000000     1.314000000
C    -6.628000000     1.050000000     1.673000000
H    -7.225000000     1.063000000     2.582000000
C    -6.552000000    -0.100000000     0.829000000
O    -6.862000000    -1.407000000     1.230000000
C    -6.032000000    -2.178000000     2.003000000
C    -5.534000000    -1.633000000     3.192000000
H    -5.976000000    -0.736000000     3.619000000
C    -4.551000000    -2.327000000     3.899000000
H    -4.280000000    -1.908000000     4.864000000
C    -4.062000000    -3.540000000     3.386000000
H    -3.342000000    -4.109000000     3.969000000
C    -4.465000000    -4.004000000     2.172000000
C    -5.525000000    -3.365000000     1.486000000
H    -5.999000000    -3.861000000     0.642000000
C    -0.475000000    -1.697000000     2.307000000
H    -1.089000000    -2.322000000     2.950000000
C    -1.019000000    -1.257000000     1.120000000
H    -2.030000000    -1.547000000     0.847000000
C    -0.270000000    -0.489000000     0.195000000
H    -0.718000000    -0.177000000    -0.711000000
C     1.009000000    -0.138000000     0.545000000
H     1.537000000     0.526000000    -0.136000000
C     1.565000000    -0.456000000     1.730000000
H     2.515000000    -0.036000000     2.050000000
C     0.861000000    -1.293000000     2.628000000
C     1.414000000    -1.675000000     3.992000000
O     2.426000000    -1.183000000     4.514000000
O     0.805000000    -2.503000000     4.634000000
O     4.510000000    -1.165000000     8.831000000
H     4.421000000    -0.833000000     7.938000000
H     4.614000000    -0.380000000     9.369000000
O    -0.310000000    -6.437000000     7.413000000
H     0.523000000    -6.235000000     7.839000000
H    -0.245000000    -6.025000000     6.551000000
O     3.093000000    -3.712000000     6.068000000
H     2.830000000    -2.933000000     5.579000000
H     2.566000000    -4.419000000     5.694000000
O     1.974000000    -5.559000000     8.218000000
H     2.489000000    -4.916000000     7.732000000
H     2.560000000    -5.861000000     8.911000000
O     4.248000000     0.077000000     6.316000000
H     3.681000000    -0.580000000     5.912000000
H     4.720000000     0.471000000     5.582000000
O     4.099000000     2.936000000     7.723000000
H     3.827000000     2.133000000     7.279000000
H     4.149000000     2.693000000     8.648000000
O    -2.040000000     1.707000000     1.326000000
H    -1.814000000     2.076000000     2.180000000
H    -1.752000000     0.795000000     1.375000000
O    -2.002000000    -1.969000000     8.967000000
H    -1.108000000    -2.137000000     9.265000000
H    -1.927000000    -1.889000000     8.017000000
O     1.095000000     0.937000000     5.154000000
H     1.237000000     1.687000000     4.576000000
H     1.731000000     0.285000000     4.859000000
O     0.703000000     1.136000000     9.904000000
H     0.842000000     0.244000000     9.586000000
H     1.539000000     1.383000000    10.299000000
O    -1.556000000    -2.025000000     5.973000000
H    -0.721000000    -2.318000000     5.607000000
H    -2.058000000    -2.831000000     6.098000000
O     0.782000000    -2.256000000     9.471000000
H     1.022000000    -1.936000000     8.601000000
H     1.590000000    -2.634000000     9.818000000
O     0.640000000     3.107000000     7.701000000
H     0.802000000     2.857000000     8.611000000
H     0.927000000     2.351000000     7.190000000
O     0.001000000    -5.203000000     5.076000000
H    -0.039000000    -5.702000000     4.260000000
H     0.127000000    -4.297000000     4.796000000
O     5.774000000    -4.249000000     7.313000000
H     4.965000000    -3.861000000     6.980000000
H     6.233000000    -4.556000000     6.532000000
O    -2.876000000    -4.454000000     6.397000000
H    -3.776000000    -4.348000000     6.704000000
H    -2.827000000    -5.365000000     6.109000000
O    -2.087000000     0.449000000     4.591000000
H    -2.447000000    -0.091000000     3.888000000
H    -1.853000000    -0.176000000     5.277000000
O     1.185000000    -1.034000000     7.134000000
H     0.714000000    -0.244000000     6.870000000
H     1.261000000    -1.547000000     6.329000000
O    -3.787000000     2.270000000     6.092000000
H    -3.239000000     2.668000000     6.768000000
H    -3.172000000     2.009000000     5.407000000
