215
-1456.01029
C     4.535000000    -0.356000000     1.843000000
H     4.521000000     0.716000000     1.666000000
C     4.475000000    -1.318000000     0.810000000
C     4.415000000    -2.664000000     1.101000000
H     4.412000000    -3.309000000     0.226000000
C     4.199000000    -0.752000000    -0.618000000
O     4.920000000     0.555000000    -0.783000000
H     3.104000000    -0.647000000    -0.628000000
O     4.572000000    -1.601000000    -1.700000000
C     3.623000000    -1.770000000    -2.688000000
C     2.751000000    -2.830000000    -2.542000000
H     2.966000000    -3.592000000    -1.797000000
C     1.669000000    -2.980000000    -3.405000000
O     0.832000000    -4.109000000    -3.270000000
C     1.528000000    -2.066000000    -4.439000000
C     0.376000000    -2.233000000    -5.355000000
H     0.525000000    -1.832000000    -6.359000000
C    -0.884000000    -1.585000000    -4.679000000
C    -1.187000000    -0.202000000    -4.956000000
H    -0.459000000     0.398000000    -5.496000000
H     0.145000000    -3.289000000    -5.507000000
C     2.409000000    -0.955000000    -4.516000000
H     2.175000000    -0.132000000    -5.187000000
C     3.449000000    -0.791000000    -3.645000000
C     4.252000000     0.479000000    -3.669000000
H     4.259000000     0.966000000    -4.646000000
H     5.298000000     0.316000000    -3.401000000
C     3.707000000     1.496000000    -2.651000000
C     2.779000000     2.431000000    -3.043000000
H     2.519000000     2.521000000    -4.095000000
C     4.076000000     1.476000000    -1.332000000
C     3.438000000     2.343000000    -0.493000000
H     3.788000000     2.234000000     0.530000000
C     2.443000000     3.296000000    -0.877000000
O     1.790000000     4.185000000     0.003000000
C     0.384000000     4.056000000     0.349000000
C     0.185000000     4.230000000     1.795000000
C    -1.020000000     4.667000000     2.299000000
H    -1.842000000     4.841000000     1.609000000
C     1.249000000     3.990000000     2.670000000
H     2.208000000     3.544000000     2.416000000
O    -0.391000000     4.919000000    -0.400000000
H     0.106000000     2.994000000     0.286000000
C     2.157000000     3.309000000    -2.208000000
C     1.331000000     4.389000000    -2.791000000
H     1.655000000     4.443000000    -3.832000000
H     1.520000000     5.431000000    -2.521000000
C    -0.139000000     4.049000000    -2.738000000
C    -0.674000000     3.230000000    -3.738000000
H    -0.062000000     2.882000000    -4.566000000
C    -0.911000000     4.420000000    -1.611000000
C    -2.240000000     3.949000000    -1.569000000
H    -2.740000000     4.148000000    -0.624000000
C    -2.762000000     3.218000000    -2.553000000
O    -3.947000000     2.621000000    -2.236000000
C    -3.798000000     1.322000000    -1.672000000
C    -4.769000000     1.137000000    -0.503000000
C    -5.044000000     2.132000000     0.411000000
H    -4.619000000     3.115000000     0.226000000
C    -5.180000000    -0.120000000    -0.215000000
H    -4.949000000    -0.945000000    -0.883000000
O    -4.116000000     0.383000000    -2.727000000
H    -2.758000000     1.184000000    -1.341000000
C    -1.991000000     2.894000000    -3.697000000
C    -2.456000000     1.958000000    -4.786000000
H    -1.935000000     2.180000000    -5.719000000
H    -3.506000000     2.169000000    -5.001000000
C    -2.325000000     0.474000000    -4.414000000
C    -3.093000000    -0.198000000    -3.437000000
C    -2.880000000    -1.552000000    -3.256000000
H    -3.497000000    -1.994000000    -2.478000000
C    -1.787000000    -2.280000000    -3.854000000
O    -1.545000000    -3.551000000    -3.427000000
C    -0.398000000    -3.762000000    -2.528000000
H    -0.264000000    -2.880000000    -1.884000000
C    -0.748000000    -4.830000000    -1.514000000
C     0.238000000    -5.692000000    -1.034000000
H     1.299000000    -5.635000000    -1.263000000
C    -2.082000000    -4.988000000    -1.062000000
H    -2.899000000    -4.414000000    -1.493000000
C    -2.346000000    -5.822000000     0.046000000
O    -3.644000000    -5.914000000     0.662000000
C    -1.334000000    -6.657000000     0.513000000
H    -1.602000000    -7.301000000     1.346000000
C    -0.054000000    -6.650000000    -0.022000000
O     0.976000000    -7.367000000     0.550000000
C     2.258000000    -6.894000000     0.668000000
C     2.584000000    -5.826000000     1.515000000
H     1.772000000    -5.313000000     2.025000000
C     3.243000000    -7.550000000    -0.053000000
H     3.051000000    -8.514000000    -0.518000000
C     4.599000000    -7.131000000     0.120000000
H     5.380000000    -7.647000000    -0.434000000
C     4.931000000    -6.070000000     1.018000000
H     5.958000000    -5.771000000     1.211000000
C     3.887000000    -5.377000000     1.668000000
O     4.195000000    -4.466000000     2.635000000
C     4.429000000    -3.151000000     2.414000000
C     4.575000000    -2.248000000     3.424000000
H     4.676000000    -2.607000000     4.446000000
C     4.630000000    -0.851000000     3.172000000
O     4.513000000    -0.032000000     4.273000000
C     4.532000000     1.376000000     4.187000000
C     3.387000000     2.003000000     4.569000000
H     2.503000000     1.501000000     4.955000000
C     5.605000000     2.119000000     3.745000000
H     6.555000000     1.626000000     3.553000000
C     5.519000000     3.518000000     3.707000000
H     6.360000000     4.139000000     3.409000000
C     4.379000000     4.184000000     4.164000000
H     4.452000000     5.262000000     4.275000000
C     3.282000000     3.403000000     4.576000000
O     2.104000000     3.997000000     4.977000000
C     1.048000000     4.241000000     4.056000000
C    -0.174000000     4.683000000     4.513000000
H    -0.233000000     4.810000000     5.591000000
C    -1.217000000     4.851000000     3.661000000
O    -2.332000000     5.418000000     4.165000000
C    -3.575000000     5.315000000     3.581000000
C    -4.159000000     4.088000000     3.214000000
H    -3.621000000     3.156000000     3.366000000
C    -4.351000000     6.481000000     3.377000000
H    -3.864000000     7.419000000     3.635000000
C    -5.592000000     6.448000000     2.792000000
H    -6.172000000     7.367000000     2.759000000
C    -6.151000000     5.246000000     2.438000000
H    -7.205000000     5.326000000     2.181000000
C    -5.430000000     3.986000000     2.691000000
O    -6.016000000     2.765000000     2.549000000
C    -5.797000000     1.805000000     1.540000000
C    -6.063000000     0.455000000     1.927000000
H    -6.599000000     0.197000000     2.837000000
C    -5.811000000    -0.461000000     0.972000000
O    -6.156000000    -1.778000000     1.136000000
C    -5.298000000    -2.707000000     1.607000000
C    -4.658000000    -2.485000000     2.840000000
H    -5.035000000    -1.643000000     3.415000000
C    -3.721000000    -3.395000000     3.381000000
H    -3.223000000    -3.088000000     4.297000000
C    -3.394000000    -4.548000000     2.634000000
H    -2.686000000    -5.225000000     3.105000000
C    -3.990000000    -4.777000000     1.349000000
C    -4.889000000    -3.795000000     0.864000000
H    -5.360000000    -3.929000000    -0.106000000
C    -0.968000000    -2.075000000     1.561000000
H    -1.478000000    -2.855000000     2.121000000
C    -1.475000000    -1.754000000     0.321000000
H    -2.289000000    -2.314000000    -0.132000000
C    -0.794000000    -0.667000000    -0.266000000
H    -1.040000000    -0.369000000    -1.342000000
C     0.207000000     0.029000000     0.444000000
H     0.543000000     0.930000000    -0.063000000
C     0.631000000    -0.356000000     1.636000000
H     1.547000000     0.018000000     2.086000000
C     0.020000000    -1.406000000     2.321000000
C     0.323000000    -1.680000000     3.812000000
O     0.850000000    -0.791000000     4.430000000
O    -0.111000000    -2.663000000     4.353000000
O     5.299000000    -1.478000000     7.371000000
H     4.575000000    -1.661000000     6.772000000
H     5.054000000    -0.658000000     7.800000000
O    -3.577000000    -6.443000000     5.666000000
H    -2.645000000    -6.651000000     5.736000000
H    -3.786000000    -6.001000000     6.489000000
O    -5.090000000    -2.085000000     6.659000000
H    -5.406000000    -2.987000000     6.604000000
H    -5.600000000    -1.612000000     6.001000000
O     1.196000000    -5.501000000     7.024000000
H     2.064000000    -5.214000000     6.739000000
H     1.278000000    -5.606000000     7.972000000
O     2.826000000    -2.279000000     5.818000000
H     2.475000000    -2.188000000     4.932000000
H     2.322000000    -1.655000000     6.341000000
O     2.051000000    -2.634000000     9.815000000
H     2.531000000    -1.841000000     9.579000000
H     2.732000000    -3.262000000    10.059000000
O    -1.008000000    -7.903000000     4.933000000
H    -1.183000000    -8.281000000     4.071000000
H    -0.608000000    -7.054000000     4.745000000
O    -2.183000000     1.647000000     1.292000000
H    -1.936000000     0.753000000     1.058000000
H    -3.116000000     1.592000000     1.499000000
O     2.193000000     2.150000000     7.497000000
H     1.748000000     1.312000000     7.368000000
H     2.156000000     2.576000000     6.641000000
O    -1.530000000     1.424000000     6.937000000
H    -1.235000000     1.569000000     6.038000000
H    -2.006000000     0.595000000     6.902000000
O    -0.811000000     1.283000000     4.232000000
H    -0.634000000     1.716000000     3.397000000
H    -0.366000000     0.438000000     4.163000000
O    -0.320000000    -0.667000000     9.440000000
H    -0.077000000    -1.296000000    10.120000000
H    -1.277000000    -0.668000000     9.445000000
O     3.744000000    -4.558000000     6.906000000
H     4.542000000    -4.910000000     6.512000000
H     3.687000000    -3.663000000     6.572000000
O     1.005000000    -0.243000000     6.909000000
H     0.331000000    -0.796000000     7.303000000
H     0.992000000    -0.476000000     5.980000000
O    -0.151000000    -5.245000000     4.448000000
H     0.508000000    -5.174000000     5.139000000
H    -0.371000000    -4.339000000     4.233000000
O    -2.211000000    -3.071000000     9.481000000
H    -1.792000000    -3.445000000     8.706000000
H    -1.552000000    -3.146000000    10.170000000
O    -2.477000000    -1.158000000     6.449000000
H    -3.236000000    -1.737000000     6.511000000
H    -1.736000000    -1.749000000     6.314000000
O    -0.847000000    -3.349000000     6.765000000
H    -0.168000000    -3.854000000     7.212000000
H    -0.511000000    -3.228000000     5.877000000
O    -3.460000000     0.504000000     4.227000000
H    -2.561000000     0.829000000     4.179000000
H    -3.406000000    -0.265000000     4.794000000
