215
-1415.05858
C     3.967000000    -0.076000000     2.283000000
H     3.914000000     0.943000000     1.910000000
C     3.919000000    -1.070000000     1.275000000
C     4.016000000    -2.439000000     1.678000000
H     4.112000000    -3.239000000     0.948000000
C     3.833000000    -0.605000000    -0.199000000
O     4.682000000     0.628000000    -0.475000000
H     2.769000000    -0.465000000    -0.438000000
O     4.339000000    -1.632000000    -1.013000000
C     3.698000000    -1.924000000    -2.173000000
C     2.848000000    -3.019000000    -2.012000000
H     3.142000000    -3.770000000    -1.283000000
C     1.796000000    -3.292000000    -2.971000000
O     0.894000000    -4.310000000    -2.605000000
C     1.678000000    -2.358000000    -4.020000000
C     0.527000000    -2.525000000    -5.041000000
H     0.891000000    -2.160000000    -6.004000000
C    -0.653000000    -1.752000000    -4.557000000
C    -1.027000000    -0.500000000    -5.075000000
H    -0.407000000     0.003000000    -5.813000000
H     0.265000000    -3.575000000    -5.188000000
C     2.591000000    -1.296000000    -4.168000000
H     2.305000000    -0.596000000    -4.949000000
C     3.602000000    -1.039000000    -3.295000000
C     4.446000000     0.196000000    -3.351000000
H     4.522000000     0.592000000    -4.366000000
H     5.450000000    -0.024000000    -2.982000000
C     3.807000000     1.394000000    -2.610000000
C     3.138000000     2.413000000    -3.391000000
H     3.125000000     2.358000000    -4.476000000
C     4.027000000     1.582000000    -1.257000000
C     3.484000000     2.758000000    -0.688000000
H     3.714000000     2.985000000     0.350000000
C     2.737000000     3.686000000    -1.433000000
O     2.050000000     4.700000000    -0.810000000
C     0.738000000     4.378000000    -0.348000000
C     0.583000000     4.771000000     1.150000000
C    -0.660000000     5.173000000     1.599000000
H    -1.466000000     5.073000000     0.877000000
C     1.634000000     4.663000000     2.019000000
H     2.633000000     4.417000000     1.666000000
O    -0.093000000     5.105000000    -1.268000000
H     0.568000000     3.295000000    -0.435000000
C     2.573000000     3.522000000    -2.805000000
C     1.603000000     4.317000000    -3.654000000
H     1.782000000     4.170000000    -4.721000000
H     1.603000000     5.379000000    -3.402000000
C     0.190000000     3.941000000    -3.382000000
C    -0.414000000     3.038000000    -4.271000000
H     0.153000000     2.680000000    -5.126000000
C    -0.602000000     4.350000000    -2.252000000
C    -1.905000000     3.928000000    -1.999000000
H    -2.404000000     4.233000000    -1.082000000
C    -2.494000000     3.009000000    -2.856000000
O    -3.632000000     2.383000000    -2.396000000
C    -3.551000000     1.018000000    -2.087000000
C    -4.459000000     0.791000000    -0.805000000
C    -4.294000000     1.604000000     0.277000000
H    -3.682000000     2.502000000     0.235000000
C    -5.215000000    -0.357000000    -0.715000000
H    -5.163000000    -1.139000000    -1.468000000
O    -4.014000000     0.252000000    -3.213000000
H    -2.529000000     0.739000000    -1.792000000
C    -1.729000000     2.624000000    -3.985000000
C    -2.369000000     1.644000000    -4.992000000
H    -1.952000000     1.886000000    -5.971000000
H    -3.456000000     1.749000000    -4.974000000
C    -2.147000000     0.172000000    -4.579000000
C    -2.988000000    -0.432000000    -3.740000000
C    -2.766000000    -1.689000000    -3.386000000
H    -3.501000000    -2.245000000    -2.810000000
C    -1.611000000    -2.399000000    -3.737000000
O    -1.411000000    -3.603000000    -3.058000000
C    -0.298000000    -3.712000000    -2.081000000
H    -0.086000000    -2.708000000    -1.684000000
C    -0.772000000    -4.645000000    -0.967000000
C     0.119000000    -5.193000000    -0.051000000
H     1.172000000    -4.923000000    -0.050000000
C    -2.147000000    -4.829000000    -0.800000000
H    -2.920000000    -4.339000000    -1.387000000
C    -2.638000000    -5.528000000     0.301000000
O    -3.929000000    -5.833000000     0.396000000
C    -1.740000000    -6.181000000     1.105000000
H    -2.106000000    -6.753000000     1.954000000
C    -0.402000000    -5.922000000     0.983000000
O     0.486000000    -6.438000000     1.973000000
C     1.850000000    -6.366000000     2.034000000
C     2.489000000    -5.161000000     2.536000000
H     1.901000000    -4.287000000     2.801000000
C     2.651000000    -7.466000000     1.887000000
H     2.189000000    -8.368000000     1.495000000
C     4.063000000    -7.367000000     2.187000000
H     4.671000000    -8.227000000     1.919000000
C     4.638000000    -6.188000000     2.636000000
H     5.696000000    -6.214000000     2.886000000
C     3.867000000    -5.099000000     2.860000000
O     4.455000000    -4.081000000     3.410000000
C     4.204000000    -2.783000000     3.007000000
C     4.196000000    -1.784000000     3.995000000
H     4.216000000    -2.043000000     5.050000000
C     4.046000000    -0.458000000     3.588000000
O     3.983000000     0.506000000     4.660000000
C     4.273000000     1.820000000     4.516000000
C     3.220000000     2.736000000     4.519000000
H     2.254000000     2.287000000     4.734000000
C     5.644000000     2.256000000     4.402000000
H     6.449000000     1.525000000     4.411000000
C     5.866000000     3.609000000     4.153000000
H     6.845000000     4.081000000     4.132000000
C     4.833000000     4.500000000     3.972000000
H     4.924000000     5.533000000     3.647000000
C     3.531000000     4.060000000     4.251000000
O     2.456000000     4.938000000     4.312000000
C     1.461000000     4.940000000     3.369000000
C     0.270000000     5.514000000     3.823000000
H     0.229000000     5.863000000     4.851000000
C    -0.864000000     5.541000000     2.937000000
O    -2.077000000     5.923000000     3.408000000
C    -3.231000000     5.510000000     2.783000000
C    -3.601000000     4.195000000     3.035000000
H    -3.024000000     3.517000000     3.659000000
C    -3.972000000     6.328000000     1.889000000
H    -3.634000000     7.357000000     1.792000000
C    -4.978000000     5.722000000     1.127000000
H    -5.581000000     6.291000000     0.424000000
C    -5.284000000     4.387000000     1.279000000
H    -6.118000000     3.942000000     0.743000000
C    -4.678000000     3.629000000     2.305000000
O    -4.995000000     2.265000000     2.427000000
C    -5.061000000     1.417000000     1.378000000
C    -5.805000000     0.263000000     1.534000000
H    -6.386000000    -0.015000000     2.410000000
C    -5.848000000    -0.611000000     0.488000000
O    -6.486000000    -1.817000000     0.743000000
C    -5.999000000    -2.966000000     1.396000000
C    -6.449000000    -3.409000000     2.663000000
H    -7.243000000    -2.862000000     3.165000000
C    -5.832000000    -4.504000000     3.229000000
H    -6.058000000    -4.864000000     4.230000000
C    -5.024000000    -5.306000000     2.497000000
H    -4.795000000    -6.325000000     2.799000000
C    -4.688000000    -4.976000000     1.235000000
C    -5.159000000    -3.789000000     0.741000000
H    -4.974000000    -3.616000000    -0.317000000
C     0.129000000    -2.051000000     2.597000000
H     0.041000000    -3.129000000     2.496000000
C     0.022000000    -1.244000000     1.402000000
H    -0.259000000    -1.671000000     0.443000000
C     0.341000000     0.156000000     1.554000000
H     0.368000000     0.800000000     0.672000000
C     0.792000000     0.609000000     2.787000000
H     1.071000000     1.657000000     2.857000000
C     0.747000000    -0.201000000     3.885000000
H     1.100000000     0.173000000     4.843000000
C     0.465000000    -1.550000000     3.824000000
C     0.691000000    -2.442000000     5.006000000
O     0.810000000    -1.922000000     6.096000000
O     0.614000000    -3.668000000     4.879000000
O    -2.011000000     1.200000000     6.810000000
H    -2.368000000     0.934000000     5.963000000
H    -1.307000000     0.575000000     6.980000000
O    -3.627000000    -3.548000000     8.275000000
H    -3.455000000    -3.511000000     9.216000000
H    -2.758000000    -3.560000000     7.873000000
O    -0.146000000    -6.193000000     5.151000000
H    -1.042000000    -6.116000000     4.824000000
H     0.180000000    -5.293000000     5.169000000
O    -5.314000000    -1.912000000     6.665000000
H    -4.653000000    -2.431000000     7.123000000
H    -4.889000000    -1.652000000     5.847000000
O     0.827000000    -8.162000000     6.739000000
H     1.148000000    -8.835000000     6.140000000
H     0.664000000    -7.402000000     6.179000000
O    -3.591000000    -0.947000000     4.733000000
H    -3.367000000    -1.868000000     4.598000000
H    -2.817000000    -0.466000000     4.439000000
O    -2.273000000    -3.232000000     4.019000000
H    -1.349000000    -3.401000000     4.200000000
H    -2.707000000    -4.068000000     4.191000000
O    -0.496000000    -0.511000000     7.882000000
H    -0.051000000    -0.691000000     8.710000000
H    -0.039000000    -1.055000000     7.241000000
O     2.257000000    -4.249000000     6.995000000
H     1.732000000    -3.951000000     6.252000000
H     2.639000000    -3.449000000     7.355000000
O     0.201000000    -8.659000000     3.848000000
H    -0.560000000    -8.719000000     3.271000000
H     0.359000000    -7.720000000     3.939000000
O     4.439000000    -5.641000000     5.869000000
H     3.929000000    -5.045000000     6.417000000
H     4.131000000    -5.471000000     4.978000000
O    -1.099000000    -3.901000000     7.039000000
H    -0.640000000    -4.254000000     7.802000000
H    -0.420000000    -3.444000000     6.543000000
O    -1.960000000    -6.614000000     7.731000000
H    -1.152000000    -6.765000000     7.240000000
H    -2.321000000    -5.810000000     7.358000000
O    -2.894000000    -5.845000000     4.641000000
H    -3.428000000    -5.560000000     5.383000000
H    -3.025000000    -6.792000000     4.601000000
O     5.106000000    -3.469000000     9.177000000
H     4.520000000    -3.782000000     9.866000000
H     4.527000000    -3.037000000     8.548000000
O     3.013000000    -1.959000000     7.930000000
H     3.173000000    -1.273000000     8.578000000
H     2.448000000    -1.545000000     7.278000000
O     2.774000000    -6.231000000     9.065000000
H     3.218000000    -5.722000000     9.743000000
H     2.465000000    -5.576000000     8.439000000
O    -2.089000000     1.127000000     3.600000000
H    -2.768000000     1.296000000     2.947000000
H    -1.297000000     0.967000000     3.087000000
O    -0.777000000    -2.981000000    10.086000000
H    -1.634000000    -2.596000000     9.902000000
H    -0.267000000    -2.262000000    10.459000000
