215
-1465.87791
C     4.974000000    -0.149000000     2.076000000
H     4.969000000     0.915000000     1.855000000
C     4.701000000    -1.107000000     1.078000000
C     4.684000000    -2.483000000     1.437000000
H     4.163000000    -3.153000000     0.758000000
C     4.297000000    -0.590000000    -0.281000000
O     4.880000000     0.684000000    -0.493000000
H     3.216000000    -0.390000000    -0.234000000
O     4.717000000    -1.540000000    -1.346000000
C     3.879000000    -1.784000000    -2.331000000
C     3.028000000    -2.900000000    -2.094000000
H     3.126000000    -3.458000000    -1.167000000
C     1.974000000    -3.147000000    -2.954000000
O     1.055000000    -4.024000000    -2.471000000
C     1.791000000    -2.361000000    -4.069000000
C     0.557000000    -2.594000000    -4.919000000
H     0.839000000    -2.245000000    -5.914000000
C    -0.700000000    -1.893000000    -4.433000000
C    -0.918000000    -0.583000000    -4.834000000
H    -0.119000000    -0.080000000    -5.372000000
H     0.373000000    -3.647000000    -5.143000000
C     2.603000000    -1.245000000    -4.319000000
H     2.476000000    -0.620000000    -5.199000000
C     3.663000000    -1.007000000    -3.465000000
C     4.513000000     0.227000000    -3.553000000
H     4.517000000     0.439000000    -4.624000000
H     5.511000000    -0.003000000    -3.174000000
C     3.852000000     1.302000000    -2.664000000
C     2.959000000     2.122000000    -3.268000000
H     2.648000000     1.916000000    -4.289000000
C     4.199000000     1.555000000    -1.329000000
C     3.559000000     2.600000000    -0.625000000
H     3.695000000     2.664000000     0.452000000
C     2.610000000     3.392000000    -1.203000000
O     1.953000000     4.319000000    -0.414000000
C     0.599000000     4.056000000    -0.169000000
C     0.170000000     4.165000000     1.282000000
C    -1.101000000     4.521000000     1.652000000
H    -1.713000000     4.978000000     0.879000000
C     0.966000000     3.499000000     2.231000000
H     1.976000000     3.185000000     1.978000000
O    -0.166000000     4.856000000    -1.011000000
H     0.447000000     3.010000000    -0.475000000
C     2.323000000     3.133000000    -2.531000000
C     1.476000000     4.085000000    -3.260000000
H     1.754000000     4.047000000    -4.316000000
H     1.718000000     5.103000000    -2.947000000
C    -0.013000000     3.728000000    -3.117000000
C    -0.643000000     3.092000000    -4.222000000
H     0.013000000     2.864000000    -5.058000000
C    -0.753000000     4.185000000    -2.035000000
C    -2.056000000     3.796000000    -1.915000000
H    -2.662000000     3.932000000    -1.023000000
C    -2.553000000     2.938000000    -2.844000000
O    -3.742000000     2.396000000    -2.561000000
C    -3.827000000     1.021000000    -2.007000000
C    -4.879000000     0.965000000    -0.935000000
C    -5.346000000     2.070000000    -0.306000000
H    -5.032000000     3.075000000    -0.576000000
C    -5.197000000    -0.314000000    -0.375000000
H    -4.747000000    -1.199000000    -0.820000000
O    -4.118000000     0.093000000    -3.088000000
H    -2.836000000     0.746000000    -1.617000000
C    -1.914000000     2.640000000    -4.080000000
C    -2.470000000     1.518000000    -4.975000000
H    -1.958000000     1.659000000    -5.929000000
H    -3.526000000     1.670000000    -5.206000000
C    -2.145000000     0.082000000    -4.516000000
C    -2.982000000    -0.514000000    -3.573000000
C    -2.696000000    -1.752000000    -3.035000000
H    -3.427000000    -2.189000000    -2.361000000
C    -1.569000000    -2.447000000    -3.482000000
O    -1.243000000    -3.681000000    -2.955000000
C    -0.271000000    -3.663000000    -1.876000000
H    -0.171000000    -2.653000000    -1.450000000
C    -0.678000000    -4.650000000    -0.766000000
C     0.305000000    -5.383000000    -0.135000000
H     1.337000000    -5.431000000    -0.475000000
C    -1.987000000    -4.700000000    -0.263000000
H    -2.779000000    -4.226000000    -0.838000000
C    -2.279000000    -5.415000000     0.861000000
O    -3.615000000    -5.413000000     1.196000000
C    -1.348000000    -6.221000000     1.514000000
H    -1.609000000    -6.754000000     2.425000000
C    -0.023000000    -6.135000000     1.008000000
O     0.962000000    -6.944000000     1.613000000
C     2.253000000    -6.531000000     1.587000000
C     2.836000000    -5.470000000     2.289000000
H     2.141000000    -4.890000000     2.889000000
C     3.107000000    -7.399000000     0.885000000
H     2.730000000    -8.256000000     0.333000000
C     4.512000000    -7.175000000     0.918000000
H     5.143000000    -7.856000000     0.353000000
C     5.000000000    -6.137000000     1.708000000
H     6.076000000    -5.985000000     1.730000000
C     4.206000000    -5.249000000     2.342000000
O     4.706000000    -4.205000000     3.095000000
C     4.924000000    -2.902000000     2.707000000
C     5.286000000    -1.937000000     3.685000000
H     5.576000000    -2.150000000     4.711000000
C     5.269000000    -0.553000000     3.391000000
O     5.533000000     0.450000000     4.326000000
C     4.820000000     1.650000000     4.319000000
C     3.419000000     1.654000000     4.413000000
H     2.864000000     0.728000000     4.542000000
C     5.514000000     2.809000000     4.165000000
H     6.577000000     2.861000000     3.942000000
C     4.803000000     4.007000000     4.161000000
H     5.365000000     4.923000000     3.993000000
C     3.414000000     4.042000000     4.330000000
H     2.936000000     5.006000000     4.483000000
C     2.710000000     2.852000000     4.376000000
O     1.331000000     2.825000000     4.485000000
C     0.517000000     3.425000000     3.571000000
C    -0.750000000     4.025000000     3.920000000
H    -0.979000000     4.016000000     4.982000000
C    -1.559000000     4.529000000     2.977000000
O    -2.771000000     5.069000000     3.356000000
C    -3.821000000     5.121000000     2.537000000
C    -4.636000000     4.006000000     2.151000000
H    -4.337000000     2.998000000     2.427000000
C    -4.312000000     6.406000000     2.247000000
H    -3.808000000     7.293000000     2.622000000
C    -5.560000000     6.551000000     1.624000000
H    -5.878000000     7.561000000     1.379000000
C    -6.329000000     5.467000000     1.380000000
H    -7.281000000     5.572000000     0.866000000
C    -5.858000000     4.202000000     1.596000000
O    -6.715000000     3.171000000     1.360000000
C    -6.256000000     2.028000000     0.741000000
C    -6.626000000     0.787000000     1.226000000
H    -7.292000000     0.764000000     2.085000000
C    -6.144000000    -0.389000000     0.631000000
O    -6.487000000    -1.603000000     1.155000000
C    -5.510000000    -2.400000000     1.792000000
C    -4.908000000    -1.912000000     2.884000000
H    -5.130000000    -0.938000000     3.314000000
C    -3.925000000    -2.665000000     3.548000000
H    -3.651000000    -2.385000000     4.562000000
C    -3.518000000    -3.883000000     3.031000000
H    -2.838000000    -4.607000000     3.473000000
C    -4.096000000    -4.279000000     1.853000000
C    -5.198000000    -3.654000000     1.296000000
H    -5.566000000    -3.927000000     0.310000000
C    -1.198000000    -1.390000000     1.416000000
H    -1.962000000    -2.135000000     1.625000000
C    -1.101000000    -0.840000000     0.123000000
H    -1.732000000    -1.219000000    -0.677000000
C    -0.029000000     0.018000000    -0.236000000
H     0.037000000     0.344000000    -1.257000000
C     0.857000000     0.415000000     0.750000000
H     1.718000000     1.048000000     0.549000000
C     0.744000000    -0.092000000     2.047000000
H     1.548000000     0.138000000     2.741000000
C    -0.221000000    -1.036000000     2.404000000
C    -0.178000000    -1.675000000     3.796000000
O     0.567000000    -1.188000000     4.677000000
O    -0.641000000    -2.791000000     3.935000000
O    -1.898000000    -0.883000000     8.189000000
H    -1.961000000    -0.632000000     9.111000000
H    -1.150000000    -0.386000000     7.857000000
O    -0.373000000    -5.587000000     8.068000000
H    -0.691000000    -4.745000000     7.742000000
H    -0.701000000    -6.228000000     7.437000000
O     3.822000000    -2.057000000     8.050000000
H     4.586000000    -2.540000000     7.736000000
H     3.083000000    -2.641000000     7.882000000
O     2.101000000    -4.575000000     7.984000000
H     1.194000000    -4.876000000     8.035000000
H     2.226000000    -4.345000000     7.063000000
O    -6.090000000    -3.262000000     6.087000000
H    -5.405000000    -2.596000000     6.041000000
H    -6.408000000    -3.219000000     6.989000000
O     0.137000000    -5.207000000     4.528000000
H    -0.649000000    -5.650000000     4.847000000
H    -0.164000000    -4.334000000     4.277000000
O    -2.118000000     1.639000000     1.193000000
H    -1.581000000     2.429000000     1.256000000
H    -1.521000000     0.969000000     0.863000000
O    -4.117000000    -0.838000000     6.609000000
H    -3.388000000    -0.798000000     7.228000000
H    -4.130000000     0.026000000     6.197000000
O    -0.929000000     0.909000000     6.049000000
H    -0.043000000     0.660000000     5.785000000
H    -1.414000000     0.976000000     5.226000000
O    -1.084000000    -3.343000000     6.724000000
H    -0.982000000    -2.471000000     7.105000000
H    -0.829000000    -3.236000000     5.808000000
O    -3.478000000    -2.994000000     8.733000000
H    -3.163000000    -2.744000000     9.601000000
H    -2.898000000    -2.534000000     8.126000000
O     0.708000000    -2.198000000    10.193000000
H     0.955000000    -1.745000000     9.387000000
H     0.496000000    -1.494000000    10.807000000
O     0.036000000     2.017000000     8.539000000
H     0.878000000     1.605000000     8.733000000
H    -0.414000000     1.388000000     7.975000000
O     2.051000000    -3.337000000     5.343000000
H     1.549000000    -2.589000000     5.018000000
H     1.598000000    -4.102000000     4.988000000
O     1.237000000    -7.575000000     4.537000000
H     1.353000000    -7.929000000     3.655000000
H     0.849000000    -6.711000000     4.399000000
O    -2.772000000     0.880000000     3.838000000
H    -2.702000000     1.188000000     2.934000000
H    -3.452000000     0.207000000     3.810000000
O    -1.618000000    -6.783000000     5.555000000
H    -2.518000000    -7.066000000     5.396000000
H    -1.084000000    -7.365000000     5.015000000
O     1.357000000    -0.937000000     7.582000000
H     2.312000000    -0.920000000     7.523000000
H     1.068000000    -1.214000000     6.713000000
O    -4.328000000     2.100000000     5.994000000
H    -4.142000000     2.945000000     6.404000000
H    -3.761000000     2.077000000     5.224000000
