215
-1446.51254
C     3.909000000     0.071000000     2.907000000
H     4.012000000     1.105000000     2.587000000
C     3.757000000    -0.917000000     1.982000000
C     3.319000000    -2.174000000     2.432000000
H     3.084000000    -2.863000000     1.625000000
C     3.718000000    -0.563000000     0.449000000
O     4.401000000     0.659000000     0.199000000
H     2.671000000    -0.587000000     0.113000000
O     4.276000000    -1.701000000    -0.231000000
C     3.708000000    -2.066000000    -1.458000000
C     2.835000000    -3.171000000    -1.438000000
H     2.791000000    -3.820000000    -0.568000000
C     2.027000000    -3.425000000    -2.541000000
O     1.127000000    -4.460000000    -2.440000000
C     2.077000000    -2.565000000    -3.684000000
C     1.169000000    -2.797000000    -4.928000000
H     1.518000000    -2.292000000    -5.831000000
C    -0.173000000    -2.138000000    -4.622000000
C    -0.374000000    -0.818000000    -5.123000000
H     0.373000000    -0.382000000    -5.781000000
H     1.126000000    -3.873000000    -5.113000000
C     2.873000000    -1.438000000    -3.670000000
H     2.927000000    -0.820000000    -4.563000000
C     3.758000000    -1.224000000    -2.605000000
C     4.662000000    -0.039000000    -2.589000000
H     5.094000000     0.121000000    -3.579000000
H     5.495000000    -0.238000000    -1.912000000
C     3.965000000     1.225000000    -2.112000000
C     3.489000000     2.122000000    -3.063000000
H     3.366000000     1.769000000    -4.084000000
C     3.916000000     1.501000000    -0.755000000
C     3.449000000     2.736000000    -0.334000000
H     3.304000000     2.836000000     0.739000000
C     2.910000000     3.627000000    -1.232000000
O     2.340000000     4.766000000    -0.683000000
C     0.906000000     4.674000000    -0.383000000
C     0.552000000     5.242000000     0.964000000
C    -0.801000000     5.450000000     1.302000000
H    -1.573000000     5.297000000     0.551000000
C     1.472000000     5.187000000     2.011000000
H     2.492000000     4.868000000     1.811000000
O     0.160000000     5.169000000    -1.530000000
H     0.654000000     3.607000000    -0.295000000
C     2.808000000     3.300000000    -2.630000000
C     2.028000000     4.218000000    -3.502000000
H     2.494000000     3.993000000    -4.463000000
H     2.099000000     5.285000000    -3.281000000
C     0.612000000     3.695000000    -3.441000000
C     0.156000000     2.745000000    -4.313000000
H     0.790000000     2.262000000    -5.053000000
C    -0.262000000     4.291000000    -2.514000000
C    -1.518000000     3.755000000    -2.400000000
H    -2.050000000     4.230000000    -1.580000000
C    -2.011000000     2.770000000    -3.188000000
O    -3.246000000     2.205000000    -2.893000000
C    -3.216000000     0.812000000    -2.377000000
C    -4.280000000     0.649000000    -1.311000000
C    -4.489000000     1.687000000    -0.361000000
H    -3.924000000     2.612000000    -0.434000000
C    -4.987000000    -0.522000000    -1.111000000
H    -4.838000000    -1.377000000    -1.765000000
O    -3.459000000    -0.108000000    -3.427000000
H    -2.201000000     0.661000000    -1.980000000
C    -1.162000000     2.255000000    -4.219000000
C    -1.728000000     1.309000000    -5.251000000
H    -1.330000000     1.478000000    -6.254000000
H    -2.781000000     1.551000000    -5.410000000
C    -1.513000000    -0.114000000    -4.790000000
C    -2.400000000    -0.772000000    -3.913000000
C    -2.284000000    -2.071000000    -3.531000000
H    -3.171000000    -2.419000000    -3.008000000
C    -1.133000000    -2.752000000    -3.804000000
O    -1.054000000    -3.948000000    -3.258000000
C    -0.245000000    -4.028000000    -2.078000000
H    -0.294000000    -3.069000000    -1.541000000
C    -0.813000000    -5.116000000    -1.103000000
C     0.126000000    -5.707000000    -0.223000000
H     1.183000000    -5.472000000    -0.323000000
C    -2.144000000    -5.405000000    -0.961000000
H    -2.859000000    -5.018000000    -1.682000000
C    -2.621000000    -6.222000000     0.094000000
O    -3.974000000    -6.438000000     0.384000000
C    -1.616000000    -6.757000000     0.928000000
H    -2.011000000    -7.322000000     1.768000000
C    -0.279000000    -6.582000000     0.736000000
O     0.559000000    -7.119000000     1.672000000
C     1.693000000    -6.513000000     2.094000000
C     1.590000000    -5.395000000     2.908000000
H     0.626000000    -4.974000000     3.181000000
C     2.977000000    -6.921000000     1.668000000
H     3.113000000    -7.746000000     0.973000000
C     4.142000000    -6.306000000     2.111000000
H     5.124000000    -6.727000000     1.912000000
C     3.994000000    -5.246000000     2.973000000
H     4.892000000    -4.811000000     3.403000000
C     2.760000000    -4.775000000     3.392000000
O     2.676000000    -3.628000000     4.159000000
C     3.129000000    -2.430000000     3.748000000
C     3.105000000    -1.402000000     4.696000000
H     2.810000000    -1.640000000     5.715000000
C     3.505000000    -0.137000000     4.256000000
O     3.302000000     0.866000000     5.139000000
C     3.709000000     2.167000000     4.849000000
C     2.739000000     3.096000000     4.690000000
H     1.705000000     2.795000000     4.842000000
C     5.060000000     2.556000000     4.600000000
H     5.807000000     1.777000000     4.471000000
C     5.368000000     3.909000000     4.570000000
H     6.408000000     4.225000000     4.569000000
C     4.312000000     4.847000000     4.500000000
H     4.444000000     5.925000000     4.479000000
C     3.022000000     4.437000000     4.412000000
O     1.974000000     5.432000000     4.329000000
C     1.112000000     5.425000000     3.307000000
C    -0.178000000     5.821000000     3.626000000
H    -0.518000000     6.015000000     4.640000000
C    -1.140000000     5.750000000     2.605000000
O    -2.458000000     6.102000000     2.906000000
C    -3.506000000     5.623000000     2.103000000
C    -3.997000000     4.332000000     2.226000000
H    -3.552000000     3.600000000     2.895000000
C    -4.071000000     6.391000000     1.062000000
H    -3.831000000     7.448000000     0.973000000
C    -5.190000000     5.948000000     0.335000000
H    -5.652000000     6.608000000    -0.395000000
C    -5.651000000     4.640000000     0.480000000
H    -6.525000000     4.249000000    -0.034000000
C    -5.106000000     3.871000000     1.511000000
O    -5.578000000     2.563000000     1.611000000
C    -5.391000000     1.544000000     0.688000000
C    -6.030000000     0.347000000     0.886000000
H    -6.674000000     0.253000000     1.756000000
C    -5.824000000    -0.701000000     0.035000000
O    -6.312000000    -2.023000000     0.283000000
C    -5.613000000    -3.049000000     0.936000000
C    -5.618000000    -3.056000000     2.332000000
H    -5.952000000    -2.164000000     2.855000000
C    -5.235000000    -4.222000000     3.030000000
H    -5.349000000    -4.279000000     4.109000000
C    -4.741000000    -5.378000000     2.403000000
H    -4.451000000    -6.259000000     2.971000000
C    -4.614000000    -5.387000000     0.980000000
C    -5.139000000    -4.256000000     0.263000000
H    -4.989000000    -4.153000000    -0.809000000
C    -1.835000000    -2.020000000     2.099000000
H    -2.734000000    -2.459000000     2.525000000
C    -1.861000000    -1.571000000     0.766000000
H    -2.722000000    -1.787000000     0.140000000
C    -0.818000000    -0.812000000     0.378000000
H    -0.944000000    -0.390000000    -0.614000000
C     0.184000000    -0.416000000     1.237000000
H     0.946000000     0.305000000     0.951000000
C     0.258000000    -0.921000000     2.550000000
H     1.078000000    -0.684000000     3.222000000
C    -0.776000000    -1.791000000     2.964000000
C    -0.928000000    -2.245000000     4.388000000
O    -0.073000000    -1.946000000     5.224000000
O    -1.944000000    -2.758000000     4.738000000
O    -5.800000000    -0.694000000     8.452000000
H    -5.215000000    -0.641000000     7.696000000
H    -6.404000000     0.039000000     8.340000000
O     1.554000000    -2.482000000    10.577000000
H     0.677000000    -2.141000000    10.401000000
H     2.144000000    -1.851000000    10.165000000
O    -0.050000000     0.718000000     6.414000000
H     0.705000000     0.750000000     7.002000000
H    -0.157000000    -0.211000000     6.212000000
O    -2.683000000    -5.568000000     4.605000000
H    -2.932000000    -5.657000000     5.525000000
H    -2.403000000    -4.656000000     4.520000000
O     1.263000000     1.760000000     8.529000000
H     1.687000000     2.277000000     9.215000000
H     0.757000000     2.399000000     8.027000000
O    -1.261000000    -6.121000000    10.187000000
H    -0.731000000    -6.913000000    10.276000000
H    -0.861000000    -5.645000000     9.458000000
O    -4.159000000     0.293000000     3.474000000
H    -3.268000000     0.381000000     3.811000000
H    -4.172000000     0.838000000     2.687000000
O    -4.122000000    -1.078000000     6.221000000
H    -3.386000000    -1.536000000     5.814000000
H    -4.831000000    -1.147000000     5.582000000
O    -1.972000000    -3.123000000     7.714000000
H    -2.331000000    -3.966000000     7.438000000
H    -1.999000000    -2.582000000     6.925000000
O     0.800000000    -4.179000000     6.162000000
H    -0.113000000    -3.906000000     6.074000000
H     1.291000000    -3.547000000     5.637000000
O    -1.263000000    -7.851000000     4.377000000
H    -0.487000000    -7.296000000     4.291000000
H    -1.996000000    -7.236000000     4.392000000
O     1.254000000    -5.932000000     8.265000000
H     1.308000000    -5.241000000     7.606000000
H     1.866000000    -6.602000000     7.960000000
O    -6.623000000     0.486000000     5.772000000
H    -7.354000000     1.003000000     5.431000000
H    -5.851000000     0.849000000     5.339000000
O    -1.027000000    -1.965000000     9.861000000
H    -1.948000000    -2.073000000    10.097000000
H    -0.942000000    -2.410000000     9.018000000
O    -3.844000000    -5.000000000     6.892000000
H    -4.562000000    -5.511000000     6.518000000
H    -4.016000000    -4.999000000     7.834000000
O    -3.822000000    -4.835000000     9.737000000
H    -2.979000000    -5.130000000    10.082000000
H    -3.958000000    -3.977000000    10.140000000
O     2.951000000    -0.515000000     9.401000000
H     2.472000000     0.193000000     8.971000000
H     3.873000000    -0.284000000     9.288000000
O    -1.558000000     1.022000000     4.182000000
H    -1.098000000     0.288000000     3.774000000
H    -0.998000000     1.277000000     4.915000000
O    -3.559000000     1.623000000     6.351000000
H    -3.406000000     1.556000000     5.408000000
H    -3.305000000     0.767000000     6.696000000
