215
-1454.87875
C     4.464000000    -0.340000000     2.036000000
H     4.808000000     0.641000000     1.717000000
C     4.176000000    -1.289000000     1.011000000
C     3.882000000    -2.584000000     1.449000000
H     3.753000000    -3.293000000     0.636000000
C     4.003000000    -0.885000000    -0.392000000
O     4.782000000     0.329000000    -0.744000000
H     2.961000000    -0.552000000    -0.512000000
O     4.255000000    -1.891000000    -1.400000000
C     3.458000000    -2.086000000    -2.550000000
C     2.554000000    -3.118000000    -2.416000000
H     2.655000000    -3.754000000    -1.541000000
C     1.503000000    -3.273000000    -3.332000000
O     0.534000000    -4.301000000    -3.125000000
C     1.390000000    -2.372000000    -4.431000000
C     0.116000000    -2.434000000    -5.267000000
H     0.307000000    -1.957000000    -6.231000000
C    -0.974000000    -1.595000000    -4.615000000
C    -1.184000000    -0.230000000    -5.018000000
H    -0.546000000     0.246000000    -5.758000000
H    -0.305000000    -3.398000000    -5.562000000
C     2.310000000    -1.301000000    -4.506000000
H     2.196000000    -0.533000000    -5.267000000
C     3.300000000    -1.122000000    -3.537000000
C     4.260000000     0.103000000    -3.606000000
H     4.559000000     0.354000000    -4.626000000
H     5.152000000    -0.338000000    -3.158000000
C     3.843000000     1.323000000    -2.769000000
C     2.940000000     2.260000000    -3.306000000
H     2.714000000     2.203000000    -4.368000000
C     4.194000000     1.389000000    -1.421000000
C     3.685000000     2.521000000    -0.642000000
H     3.904000000     2.755000000     0.397000000
C     2.822000000     3.470000000    -1.219000000
O     2.155000000     4.313000000    -0.344000000
C     0.762000000     4.018000000    -0.060000000
C     0.520000000     4.041000000     1.465000000
C    -0.744000000     4.333000000     2.052000000
H    -1.558000000     4.405000000     1.336000000
C     1.583000000     3.919000000     2.365000000
H     2.609000000     3.858000000     2.010000000
O    -0.034000000     4.905000000    -0.790000000
H     0.669000000     2.974000000    -0.392000000
C     2.459000000     3.336000000    -2.567000000
C     1.579000000     4.406000000    -3.247000000
H     1.811000000     4.476000000    -4.312000000
H     1.784000000     5.417000000    -2.891000000
C     0.069000000     4.052000000    -3.021000000
C    -0.519000000     3.333000000    -4.063000000
H     0.144000000     2.892000000    -4.803000000
C    -0.660000000     4.413000000    -1.909000000
C    -1.933000000     4.021000000    -1.696000000
H    -2.343000000     4.349000000    -0.744000000
C    -2.524000000     3.242000000    -2.673000000
O    -3.771000000     2.684000000    -2.313000000
C    -3.827000000     1.375000000    -1.879000000
C    -4.900000000     1.144000000    -0.824000000
C    -5.229000000     2.245000000     0.058000000
H    -4.764000000     3.199000000    -0.179000000
C    -5.385000000    -0.152000000    -0.529000000
H    -5.122000000    -0.996000000    -1.163000000
O    -4.137000000     0.599000000    -3.042000000
H    -2.874000000     1.120000000    -1.391000000
C    -1.875000000     2.962000000    -3.874000000
C    -2.469000000     1.950000000    -4.842000000
H    -2.015000000     2.136000000    -5.817000000
H    -3.541000000     2.109000000    -4.977000000
C    -2.264000000     0.482000000    -4.414000000
C    -3.100000000    -0.165000000    -3.494000000
C    -2.879000000    -1.492000000    -3.090000000
H    -3.582000000    -2.017000000    -2.447000000
C    -1.818000000    -2.201000000    -3.593000000
O    -1.708000000    -3.500000000    -3.150000000
C    -0.573000000    -3.807000000    -2.301000000
H    -0.222000000    -2.876000000    -1.833000000
C    -0.906000000    -4.843000000    -1.189000000
C     0.040000000    -5.754000000    -0.725000000
H     1.040000000    -5.810000000    -1.147000000
C    -2.210000000    -4.804000000    -0.605000000
H    -2.953000000    -4.096000000    -0.962000000
C    -2.544000000    -5.668000000     0.464000000
O    -3.800000000    -5.543000000     1.087000000
C    -1.546000000    -6.478000000     0.925000000
H    -1.649000000    -7.004000000     1.871000000
C    -0.268000000    -6.517000000     0.340000000
O     0.675000000    -7.335000000     0.914000000
C     1.917000000    -6.832000000     1.200000000
C     2.135000000    -5.900000000     2.148000000
H     1.285000000    -5.577000000     2.744000000
C     3.002000000    -7.415000000     0.560000000
H     2.878000000    -8.223000000    -0.157000000
C     4.321000000    -6.897000000     0.738000000
H     5.119000000    -7.411000000     0.208000000
C     4.498000000    -5.824000000     1.591000000
H     5.499000000    -5.465000000     1.818000000
C     3.425000000    -5.358000000     2.318000000
O     3.685000000    -4.311000000     3.195000000
C     4.001000000    -3.055000000     2.749000000
C     4.430000000    -2.139000000     3.673000000
H     4.538000000    -2.460000000     4.706000000
C     4.674000000    -0.796000000     3.340000000
O     5.066000000    -0.002000000     4.339000000
C     5.031000000     1.397000000     4.231000000
C     3.837000000     2.061000000     4.526000000
H     2.987000000     1.446000000     4.810000000
C     6.212000000     2.152000000     3.973000000
H     7.139000000     1.627000000     3.757000000
C     6.118000000     3.564000000     3.871000000
H     7.011000000     4.050000000     3.485000000
C     4.851000000     4.131000000     3.888000000
H     4.804000000     5.199000000     3.692000000
C     3.730000000     3.422000000     4.342000000
O     2.536000000     4.005000000     4.616000000
C     1.423000000     3.948000000     3.764000000
C     0.161000000     4.229000000     4.277000000
H     0.114000000     4.412000000     5.347000000
C    -0.887000000     4.536000000     3.424000000
O    -2.197000000     4.612000000     3.910000000
C    -3.360000000     4.877000000     3.210000000
C    -4.255000000     3.865000000     2.989000000
H    -3.952000000     2.876000000     3.324000000
C    -3.747000000     6.199000000     3.022000000
H    -3.186000000     7.097000000     3.270000000
C    -4.974000000     6.437000000     2.439000000
H    -5.176000000     7.498000000     2.310000000
C    -5.815000000     5.394000000     2.064000000
H    -6.817000000     5.669000000     1.742000000
C    -5.495000000     4.064000000     2.411000000
O    -6.364000000     3.068000000     2.098000000
C    -6.028000000     2.038000000     1.252000000
C    -6.478000000     0.780000000     1.530000000
H    -7.018000000     0.684000000     2.468000000
C    -6.153000000    -0.290000000     0.701000000
O    -6.560000000    -1.593000000     1.157000000
C    -5.695000000    -2.457000000     1.691000000
C    -5.179000000    -2.244000000     3.011000000
H    -5.604000000    -1.443000000     3.612000000
C    -4.223000000    -2.989000000     3.568000000
H    -3.905000000    -2.824000000     4.594000000
C    -3.695000000    -4.096000000     2.903000000
H    -2.880000000    -4.667000000     3.342000000
C    -4.234000000    -4.352000000     1.652000000
C    -5.208000000    -3.541000000     1.014000000
H    -5.491000000    -3.747000000    -0.015000000
C    -0.158000000    -2.138000000     2.069000000
H    -0.585000000    -3.136000000     2.128000000
C    -0.198000000    -1.339000000     0.912000000
H    -0.577000000    -1.823000000     0.015000000
C     0.239000000    -0.029000000     0.957000000
H     0.056000000     0.583000000     0.113000000
C     0.763000000     0.472000000     2.157000000
H     0.960000000     1.537000000     2.251000000
C     0.781000000    -0.306000000     3.322000000
H     1.265000000     0.011000000     4.243000000
C     0.412000000    -1.643000000     3.279000000
C     0.385000000    -2.480000000     4.555000000
O     0.508000000    -1.951000000     5.649000000
O     0.305000000    -3.738000000     4.415000000
O     1.715000000    -6.669000000     7.896000000
H     1.910000000    -6.580000000     6.963000000
H     1.132000000    -5.935000000     8.090000000
O     3.610000000    -3.807000000     8.083000000
H     4.225000000    -4.363000000     7.605000000
H     2.810000000    -4.329000000     8.139000000
O    -1.201000000    -6.042000000     4.639000000
H    -1.601000000    -5.612000000     5.394000000
H    -0.614000000    -5.382000000     4.271000000
O     2.583000000     1.531000000     7.801000000
H     1.723000000     1.885000000     8.027000000
H     2.394000000     0.689000000     7.385000000
O    -2.307000000     0.482000000     2.764000000
H    -1.372000000     0.380000000     2.585000000
H    -2.717000000     0.488000000     1.899000000
O    -0.839000000     0.342000000     6.407000000
H    -0.442000000    -0.506000000     6.212000000
H    -1.644000000     0.355000000     5.891000000
O     0.331000000    -4.112000000     7.425000000
H    -0.505000000    -4.579000000     7.436000000
H     0.245000000    -3.484000000     6.709000000
O    -2.365000000    -2.185000000     9.885000000
H    -2.143000000    -1.351000000     9.470000000
H    -1.526000000    -2.531000000    10.190000000
O    -1.466000000     0.193000000     9.156000000
H    -0.612000000     0.176000000     9.589000000
H    -1.268000000     0.413000000     8.246000000
O     2.994000000    -2.836000000    10.626000000
H     3.400000000    -3.094000000     9.799000000
H     3.487000000    -2.065000000    10.906000000
O     1.040000000     0.482000000    10.140000000
H     1.476000000    -0.102000000     9.520000000
H     1.755000000     0.928000000    10.593000000
O     2.121000000    -5.779000000     5.154000000
H     1.533000000    -5.030000000     5.057000000
H     2.924000000    -5.513000000     4.705000000
O     1.926000000    -8.473000000     4.921000000
H     2.842000000    -8.558000000     5.186000000
H     1.773000000    -7.528000000     4.888000000
O    -0.217000000     2.876000000     7.300000000
H    -1.118000000     3.198000000     7.284000000
H    -0.292000000     1.945000000     7.090000000
O    -3.479000000     1.366000000     5.259000000
H    -4.353000000     1.527000000     4.904000000
H    -2.927000000     1.237000000     4.488000000
O     0.161000000    -3.235000000     9.990000000
H     0.147000000    -3.530000000     9.080000000
H     0.984000000    -2.753000000    10.073000000
O    -2.356000000    -5.017000000     7.126000000
H    -3.101000000    -4.435000000     6.973000000
H    -2.751000000    -5.848000000     7.389000000
O    -2.113000000    -8.403000000     5.473000000
H    -1.986000000    -8.886000000     4.656000000
H    -1.392000000    -7.775000000     5.495000000
O     1.606000000    -1.091000000     7.654000000
H     2.337000000    -1.709000000     7.673000000
H     1.045000000    -1.406000000     6.945000000
