215
-1480.50178
C     4.866000000     0.209000000     1.812000000
H     4.781000000     1.236000000     1.466000000
C     4.709000000    -0.856000000     0.947000000
C     4.657000000    -2.176000000     1.458000000
H     4.385000000    -3.019000000     0.829000000
C     4.277000000    -0.619000000    -0.514000000
O     4.810000000     0.673000000    -0.943000000
H     3.185000000    -0.481000000    -0.502000000
O     4.610000000    -1.711000000    -1.442000000
C     3.690000000    -2.062000000    -2.368000000
C     2.856000000    -3.145000000    -2.023000000
H     2.979000000    -3.733000000    -1.117000000
C     1.757000000    -3.370000000    -2.772000000
O     0.898000000    -4.349000000    -2.311000000
C     1.401000000    -2.545000000    -3.858000000
C     0.210000000    -2.801000000    -4.694000000
H     0.379000000    -2.480000000    -5.724000000
C    -1.075000000    -2.251000000    -4.140000000
C    -1.515000000    -0.989000000    -4.603000000
H    -1.082000000    -0.541000000    -5.495000000
H     0.103000000    -3.874000000    -4.867000000
C     2.209000000    -1.484000000    -4.155000000
H     1.964000000    -0.823000000    -4.982000000
C     3.420000000    -1.262000000    -3.456000000
C     4.226000000     0.028000000    -3.721000000
H     4.318000000     0.224000000    -4.791000000
H     5.227000000    -0.049000000    -3.291000000
C     3.576000000     1.256000000    -3.004000000
C     2.745000000     2.117000000    -3.703000000
H     2.613000000     1.872000000    -4.753000000
C     3.950000000     1.534000000    -1.668000000
C     3.404000000     2.663000000    -1.029000000
H     3.846000000     2.959000000    -0.081000000
C     2.475000000     3.479000000    -1.706000000
O     1.937000000     4.568000000    -1.020000000
C     0.551000000     4.391000000    -0.589000000
C     0.386000000     4.874000000     0.810000000
C    -0.828000000     5.406000000     1.282000000
H    -1.598000000     5.753000000     0.597000000
C     1.218000000     4.298000000     1.815000000
H     2.130000000     3.760000000     1.572000000
O    -0.444000000     4.873000000    -1.446000000
H     0.386000000     3.305000000    -0.547000000
C     2.090000000     3.155000000    -3.035000000
C     1.038000000     3.967000000    -3.766000000
H     1.202000000     3.925000000    -4.845000000
H     1.139000000     5.025000000    -3.516000000
C    -0.413000000     3.518000000    -3.413000000
C    -1.126000000     2.695000000    -4.264000000
H    -0.592000000     2.247000000    -5.098000000
C    -1.073000000     4.071000000    -2.296000000
C    -2.299000000     3.560000000    -1.883000000
H    -2.712000000     3.959000000    -0.960000000
C    -2.933000000     2.527000000    -2.555000000
O    -4.044000000     1.914000000    -1.977000000
C    -3.809000000     0.671000000    -1.294000000
C    -4.541000000     0.592000000     0.027000000
C    -4.577000000     1.695000000     0.826000000
H    -4.086000000     2.583000000     0.436000000
C    -5.049000000    -0.662000000     0.514000000
H    -5.009000000    -1.593000000    -0.046000000
O    -4.246000000    -0.287000000    -2.294000000
H    -2.717000000     0.575000000    -1.202000000
C    -2.389000000     2.148000000    -3.801000000
C    -2.951000000     0.988000000    -4.584000000
H    -2.676000000     1.131000000    -5.631000000
H    -4.040000000     1.063000000    -4.617000000
C    -2.523000000    -0.304000000    -3.987000000
C    -3.270000000    -0.911000000    -2.973000000
C    -2.884000000    -2.090000000    -2.460000000
H    -3.444000000    -2.540000000    -1.644000000
C    -1.772000000    -2.741000000    -2.993000000
O    -1.353000000    -3.933000000    -2.465000000
C    -0.247000000    -3.811000000    -1.609000000
H    -0.025000000    -2.755000000    -1.392000000
C    -0.468000000    -4.594000000    -0.372000000
C     0.595000000    -5.175000000     0.371000000
H     1.639000000    -5.175000000     0.071000000
C    -1.717000000    -4.797000000     0.114000000
H    -2.560000000    -4.335000000    -0.392000000
C    -1.994000000    -5.492000000     1.271000000
O    -3.258000000    -5.651000000     1.756000000
C    -0.953000000    -6.027000000     2.060000000
H    -1.157000000    -6.570000000     2.979000000
C     0.390000000    -5.909000000     1.556000000
O     1.339000000    -6.659000000     2.205000000
C     2.703000000    -6.327000000     2.209000000
C     3.050000000    -5.120000000     2.849000000
H     2.364000000    -4.614000000     3.523000000
C     3.634000000    -7.124000000     1.560000000
H     3.284000000    -7.975000000     0.981000000
C     4.929000000    -6.671000000     1.502000000
H     5.647000000    -7.231000000     0.908000000
C     5.356000000    -5.524000000     2.196000000
H     6.388000000    -5.196000000     2.295000000
C     4.406000000    -4.753000000     2.802000000
O     4.788000000    -3.565000000     3.383000000
C     4.932000000    -2.336000000     2.815000000
C     5.194000000    -1.235000000     3.636000000
H     5.312000000    -1.328000000     4.713000000
C     5.164000000     0.014000000     3.131000000
O     5.608000000     1.049000000     3.939000000
C     5.096000000     2.323000000     3.864000000
C     3.709000000     2.498000000     4.118000000
H     3.035000000     1.763000000     4.551000000
C     5.889000000     3.363000000     3.366000000
H     6.961000000     3.206000000     3.279000000
C     5.386000000     4.657000000     3.205000000
H     5.972000000     5.543000000     2.973000000
C     4.030000000     4.846000000     3.511000000
H     3.620000000     5.853000000     3.517000000
C     3.175000000     3.770000000     3.878000000
O     1.854000000     4.079000000     4.189000000
C     1.037000000     4.512000000     3.171000000
C    -0.054000000     5.228000000     3.590000000
H    -0.178000000     5.439000000     4.649000000
C    -0.959000000     5.688000000     2.627000000
O    -2.071000000     6.373000000     3.104000000
C    -3.306000000     6.037000000     2.649000000
C    -3.670000000     4.723000000     3.060000000
H    -2.911000000     4.105000000     3.533000000
C    -4.161000000     6.823000000     1.879000000
H    -3.890000000     7.825000000     1.554000000
C    -5.355000000     6.264000000     1.557000000
H    -6.049000000     6.897000000     1.011000000
C    -5.701000000     4.953000000     1.863000000
H    -6.661000000     4.597000000     1.500000000
C    -4.814000000     4.121000000     2.589000000
O    -5.126000000     2.783000000     2.922000000
C    -5.229000000     1.689000000     2.073000000
C    -5.754000000     0.431000000     2.587000000
H    -5.972000000     0.345000000     3.649000000
C    -5.707000000    -0.709000000     1.740000000
O    -6.220000000    -1.897000000     2.238000000
C    -5.901000000    -3.170000000     1.653000000
C    -6.843000000    -3.859000000     0.905000000
H    -7.844000000    -3.443000000     0.828000000
C    -6.483000000    -4.970000000     0.143000000
H    -7.263000000    -5.475000000    -0.422000000
C    -5.326000000    -5.578000000     0.486000000
H    -5.091000000    -6.564000000     0.092000000
C    -4.408000000    -4.972000000     1.323000000
C    -4.673000000    -3.738000000     1.853000000
H    -3.953000000    -3.316000000     2.550000000
C    -0.629000000    -1.877000000     2.370000000
H    -1.397000000    -2.613000000     2.594000000
C    -0.640000000    -1.451000000     1.007000000
H    -1.389000000    -1.893000000     0.355000000
C     0.336000000    -0.605000000     0.595000000
H     0.330000000    -0.223000000    -0.361000000
C     1.294000000    -0.147000000     1.519000000
H     2.117000000     0.506000000     1.239000000
C     1.320000000    -0.577000000     2.845000000
H     2.137000000    -0.254000000     3.484000000
C     0.319000000    -1.475000000     3.318000000
C     0.324000000    -2.005000000     4.734000000
O     1.056000000    -1.580000000     5.610000000
O    -0.370000000    -2.975000000     4.971000000
O    -4.355000000     0.077000000     6.981000000
H    -4.654000000    -0.733000000     6.569000000
H    -4.039000000     0.613000000     6.253000000
O    -0.570000000    -5.226000000     6.425000000
H    -0.097000000    -5.939000000     5.996000000
H    -0.315000000    -4.442000000     5.937000000
O    -0.948000000    -4.759000000     9.663000000
H    -1.021000000    -4.089000000     8.983000000
H    -0.109000000    -5.185000000     9.490000000
O     3.556000000    -0.472000000     6.219000000
H     3.244000000     0.258000000     6.754000000
H     2.763000000    -0.960000000     5.993000000
O     5.351000000    -1.438000000     7.998000000
H     5.417000000    -2.358000000     7.742000000
H     4.655000000    -1.085000000     7.445000000
O     2.194000000     1.245000000     8.229000000
H     1.484000000     0.632000000     8.421000000
H     2.584000000     1.435000000     9.082000000
O    -3.589000000     1.700000000     4.777000000
H    -2.913000000     1.682000000     4.099000000
H    -4.336000000     2.127000000     4.358000000
O    -5.219000000    -2.375000000     6.298000000
H    -5.768000000    -3.075000000     6.651000000
H    -4.503000000    -2.831000000     5.857000000
O    -2.916000000    -3.515000000     5.141000000
H    -2.183000000    -2.905000000     5.226000000
H    -2.556000000    -4.257000000     4.656000000
O     0.307000000     0.983000000     5.381000000
H     0.378000000     1.614000000     6.097000000
H     0.621000000     0.160000000     5.755000000
O     0.284000000     0.413000000    10.618000000
H     0.857000000    -0.128000000    11.161000000
H     0.146000000    -0.106000000     9.826000000
O     2.025000000    -3.764000000     7.037000000
H     1.546000000    -4.592000000     7.017000000
H     1.482000000    -3.161000000     6.529000000
O     1.305000000    -7.100000000     5.353000000
H     2.198000000    -7.333000000     5.603000000
H     1.262000000    -7.286000000     4.415000000
O     5.122000000    -3.599000000     6.359000000
H     4.933000000    -3.353000000     5.453000000
H     4.319000000    -4.020000000     6.666000000
O    -2.305000000    -2.981000000     8.088000000
H    -2.482000000    -3.040000000     7.149000000
H    -2.500000000    -2.071000000     8.311000000
O    -2.312000000     3.376000000     6.519000000
H    -1.365000000     3.514000000     6.550000000
H    -2.424000000     2.605000000     5.963000000
O     2.442000000    -3.463000000     9.747000000
H     2.340000000    -3.488000000     8.795000000
H     3.224000000    -3.987000000     9.918000000
O    -1.402000000     1.317000000     3.220000000
H    -0.727000000     1.297000000     3.899000000
H    -0.990000000     0.904000000     2.461000000
O     0.319000000    -0.958000000     7.965000000
H     0.667000000    -1.046000000     7.078000000
H     0.175000000    -1.858000000     8.257000000
