215
-1443.03126
C     4.942000000    -0.170000000     2.211000000
H     4.819000000     0.863000000     1.895000000
C     4.633000000    -1.113000000     1.258000000
C     4.408000000    -2.415000000     1.703000000
H     4.030000000    -3.238000000     1.101000000
C     4.348000000    -0.706000000    -0.159000000
O     5.158000000     0.297000000    -0.628000000
H     3.313000000    -0.338000000    -0.217000000
O     4.476000000    -1.854000000    -1.014000000
C     3.520000000    -2.158000000    -1.969000000
C     2.542000000    -3.132000000    -1.796000000
H     2.413000000    -3.778000000    -0.931000000
C     1.492000000    -3.165000000    -2.771000000
O     0.440000000    -4.048000000    -2.579000000
C     1.547000000    -2.470000000    -4.003000000
C     0.410000000    -2.575000000    -5.004000000
H     0.735000000    -2.243000000    -5.993000000
C    -0.842000000    -1.765000000    -4.600000000
C    -1.029000000    -0.512000000    -5.012000000
H    -0.185000000     0.005000000    -5.463000000
H     0.092000000    -3.607000000    -5.163000000
C     2.591000000    -1.544000000    -4.175000000
H     2.601000000    -0.904000000    -5.054000000
C     3.566000000    -1.324000000    -3.140000000
C     4.604000000    -0.172000000    -3.353000000
H     4.697000000     0.008000000    -4.426000000
H     5.595000000    -0.471000000    -3.004000000
C     4.141000000     1.164000000    -2.639000000
C     3.390000000     2.132000000    -3.286000000
H     3.125000000     1.955000000    -4.326000000
C     4.572000000     1.350000000    -1.315000000
C     4.018000000     2.342000000    -0.510000000
H     4.275000000     2.430000000     0.543000000
C     3.088000000     3.193000000    -1.143000000
O     2.570000000     4.079000000    -0.234000000
C     1.201000000     4.008000000     0.202000000
C     1.062000000     4.683000000     1.548000000
C    -0.155000000     5.240000000     2.018000000
H    -0.961000000     5.358000000     1.299000000
C     2.075000000     4.488000000     2.475000000
H     2.931000000     3.857000000     2.252000000
O     0.344000000     4.659000000    -0.737000000
H     0.960000000     2.942000000     0.330000000
C     2.806000000     3.162000000    -2.518000000
C     1.900000000     4.182000000    -3.125000000
H     2.220000000     4.393000000    -4.148000000
H     2.226000000     5.100000000    -2.631000000
C     0.424000000     3.716000000    -2.989000000
C    -0.216000000     2.919000000    -3.963000000
H     0.328000000     2.635000000    -4.860000000
C    -0.273000000     4.058000000    -1.822000000
C    -1.611000000     3.668000000    -1.723000000
H    -2.256000000     3.939000000    -0.891000000
C    -2.213000000     2.881000000    -2.673000000
O    -3.424000000     2.312000000    -2.399000000
C    -3.576000000     0.933000000    -2.088000000
C    -4.337000000     0.746000000    -0.752000000
C    -4.027000000     1.510000000     0.403000000
H    -3.232000000     2.239000000     0.276000000
C    -5.260000000    -0.273000000    -0.590000000
H    -5.508000000    -0.920000000    -1.427000000
O    -4.153000000     0.219000000    -3.202000000
H    -2.536000000     0.573000000    -2.068000000
C    -1.520000000     2.551000000    -3.845000000
C    -2.245000000     1.724000000    -4.928000000
H    -1.769000000     1.818000000    -5.906000000
H    -3.298000000     2.006000000    -4.997000000
C    -2.219000000     0.197000000    -4.741000000
C    -3.264000000    -0.417000000    -4.001000000
C    -3.076000000    -1.677000000    -3.624000000
H    -3.791000000    -2.166000000    -2.967000000
C    -1.938000000    -2.340000000    -3.903000000
O    -1.775000000    -3.605000000    -3.327000000
C    -0.810000000    -3.474000000    -2.225000000
H    -0.685000000    -2.421000000    -1.933000000
C    -1.326000000    -4.237000000    -0.972000000
C    -0.502000000    -4.351000000     0.200000000
H     0.508000000    -3.963000000     0.300000000
C    -2.657000000    -4.690000000    -0.861000000
H    -3.325000000    -4.586000000    -1.712000000
C    -3.144000000    -5.287000000     0.285000000
O    -4.401000000    -5.743000000     0.241000000
C    -2.317000000    -5.582000000     1.362000000
H    -2.718000000    -6.201000000     2.160000000
C    -1.014000000    -5.112000000     1.285000000
O    -0.216000000    -5.394000000     2.355000000
C     1.142000000    -5.464000000     2.259000000
C     2.032000000    -4.637000000     2.945000000
H     1.678000000    -3.821000000     3.569000000
C     1.677000000    -6.633000000     1.709000000
H     0.967000000    -7.319000000     1.254000000
C     3.080000000    -6.892000000     1.730000000
H     3.583000000    -7.756000000     1.305000000
C     3.893000000    -5.950000000     2.319000000
H     4.949000000    -6.158000000     2.470000000
C     3.391000000    -4.832000000     2.936000000
O     4.225000000    -3.994000000     3.567000000
C     4.535000000    -2.751000000     3.016000000
C     4.850000000    -1.787000000     3.956000000
H     4.806000000    -2.001000000     5.020000000
C     4.993000000    -0.424000000     3.553000000
O     5.227000000     0.530000000     4.540000000
C     5.254000000     1.889000000     4.357000000
C     4.025000000     2.506000000     4.593000000
H     3.144000000     2.022000000     5.008000000
C     6.321000000     2.554000000     3.858000000
H     7.209000000     1.947000000     3.703000000
C     6.150000000     3.909000000     3.480000000
H     6.956000000     4.458000000     3.001000000
C     5.053000000     4.620000000     3.892000000
H     4.998000000     5.687000000     3.696000000
C     3.988000000     3.896000000     4.512000000
O     2.792000000     4.551000000     4.755000000
C     1.834000000     4.803000000     3.806000000
C     0.639000000     5.379000000     4.261000000
H     0.481000000     5.770000000     5.263000000
C    -0.384000000     5.622000000     3.370000000
O    -1.616000000     5.971000000     3.778000000
C    -2.772000000     5.374000000     3.271000000
C    -2.914000000     4.005000000     3.243000000
H    -2.095000000     3.387000000     3.602000000
C    -3.784000000     6.195000000     2.720000000
H    -3.677000000     7.277000000     2.747000000
C    -4.916000000     5.648000000     2.113000000
H    -5.654000000     6.249000000     1.587000000
C    -5.041000000     4.284000000     2.056000000
H    -5.936000000     3.921000000     1.556000000
C    -4.060000000     3.435000000     2.662000000
O    -4.282000000     2.045000000     2.654000000
C    -4.611000000     1.301000000     1.597000000
C    -5.535000000     0.248000000     1.714000000
H    -5.965000000     0.017000000     2.686000000
C    -5.800000000    -0.584000000     0.663000000
O    -6.759000000    -1.491000000     0.845000000
C    -6.691000000    -2.835000000     0.633000000
C    -7.885000000    -3.480000000     0.415000000
H    -8.838000000    -2.958000000     0.398000000
C    -7.924000000    -4.882000000     0.233000000
H    -8.844000000    -5.440000000     0.076000000
C    -6.750000000    -5.601000000     0.197000000
H    -6.906000000    -6.635000000    -0.099000000
C    -5.524000000    -4.971000000     0.461000000
C    -5.518000000    -3.565000000     0.627000000
H    -4.560000000    -3.053000000     0.602000000
C    -0.837000000    -1.419000000     2.540000000
H    -1.607000000    -2.106000000     2.881000000
C    -0.843000000    -0.944000000     1.218000000
H    -1.630000000    -1.274000000     0.545000000
C     0.163000000    -0.050000000     0.832000000
H     0.052000000     0.459000000    -0.157000000
C     1.211000000     0.216000000     1.688000000
H     1.941000000     0.965000000     1.393000000
C     1.253000000    -0.221000000     3.012000000
H     2.079000000     0.148000000     3.614000000
C     0.198000000    -1.075000000     3.435000000
C     0.163000000    -1.586000000     4.854000000
O     1.122000000    -1.397000000     5.523000000
O    -0.755000000    -2.300000000     5.195000000
O    -3.215000000     1.415000000     7.710000000
H    -3.344000000     1.181000000     6.791000000
H    -2.279000000     1.599000000     7.781000000
O    -3.155000000    -4.819000000     8.101000000
H    -2.803000000    -3.965000000     7.850000000
H    -3.927000000    -4.932000000     7.548000000
O     0.362000000    -4.672000000     5.805000000
H    -0.262000000    -5.233000000     6.266000000
H    -0.122000000    -3.864000000     5.635000000
O     1.658000000    -4.601000000     9.536000000
H     2.308000000    -4.108000000    10.037000000
H     1.899000000    -4.454000000     8.621000000
O    -4.541000000     0.401000000     5.503000000
H    -3.719000000     0.577000000     5.045000000
H    -5.048000000    -0.131000000     4.890000000
O    -5.484000000    -2.351000000     4.530000000
H    -5.984000000    -2.776000000     3.833000000
H    -4.590000000    -2.672000000     4.412000000
O    -3.142000000    -3.403000000     4.311000000
H    -2.348000000    -3.073000000     4.733000000
H    -3.014000000    -4.351000000     4.272000000
O     0.734000000     1.476000000     5.900000000
H     1.248000000     1.751000000     6.659000000
H     1.047000000     0.593000000     5.705000000
O     2.422000000    -3.441000000     7.138000000
H     2.433000000    -4.183000000     6.533000000
H     1.806000000    -2.822000000     6.746000000
O     0.397000000    -7.610000000     4.367000000
H     0.505000000    -6.833000000     3.819000000
H    -0.153000000    -7.316000000     5.094000000
O     5.027000000    -4.548000000     5.918000000
H     4.829000000    -4.247000000     5.032000000
H     4.202000000    -4.914000000     6.237000000
O    -5.349000000    -1.576000000     7.490000000
H    -4.410000000    -1.689000000     7.344000000
H    -5.589000000    -0.829000000     6.943000000
O    -0.666000000    -3.152000000     9.712000000
H    -0.375000000    -2.337000000     9.303000000
H     0.106000000    -3.718000000     9.695000000
O    -2.647000000    -2.232000000     7.345000000
H    -2.282000000    -2.154000000     6.464000000
H    -1.979000000    -1.854000000     7.916000000
O    -1.490000000    -6.971000000     7.226000000
H    -2.119000000    -7.643000000     7.488000000
H    -1.996000000    -6.158000000     7.226000000
O     2.602000000    -6.155000000     5.511000000
H     2.419000000    -7.035000000     5.183000000
H     1.754000000    -5.711000000     5.491000000
O     4.413000000    -0.573000000     7.575000000
H     3.785000000    -0.001000000     8.016000000
H     3.895000000    -1.329000000     7.299000000
O    -1.860000000     1.172000000     4.652000000
H    -1.615000000     0.727000000     3.840000000
H    -1.074000000     1.125000000     5.197000000
O    -0.044000000    -1.046000000     8.060000000
H     0.027000000    -0.116000000     8.274000000
H     0.257000000    -1.106000000     7.153000000
