215
-1458.98438
C     5.364000000    -0.342000000     0.859000000
H     5.631000000     0.610000000     0.408000000
C     4.697000000    -1.323000000     0.187000000
C     4.281000000    -2.485000000     0.852000000
H     3.662000000    -3.238000000     0.371000000
C     4.065000000    -1.056000000    -1.139000000
O     4.677000000     0.065000000    -1.828000000
H     3.092000000    -0.726000000    -0.746000000
O     3.951000000    -2.245000000    -1.956000000
C     2.727000000    -2.336000000    -2.708000000
C     1.821000000    -3.271000000    -2.269000000
H     1.975000000    -3.835000000    -1.353000000
C     0.637000000    -3.492000000    -2.985000000
O    -0.311000000    -4.428000000    -2.529000000
C     0.417000000    -2.708000000    -4.097000000
C    -0.944000000    -2.826000000    -4.756000000
H    -0.771000000    -2.471000000    -5.774000000
C    -2.022000000    -2.005000000    -3.990000000
C    -2.382000000    -0.786000000    -4.456000000
H    -1.882000000    -0.446000000    -5.359000000
H    -1.284000000    -3.852000000    -4.907000000
C     1.292000000    -1.752000000    -4.486000000
H     0.989000000    -1.031000000    -5.242000000
C     2.488000000    -1.586000000    -3.872000000
C     3.396000000    -0.402000000    -4.279000000
H     3.202000000    -0.282000000    -5.347000000
H     4.411000000    -0.791000000    -4.173000000
C     3.174000000     0.879000000    -3.590000000
C     2.249000000     1.761000000    -3.988000000
H     1.684000000     1.599000000    -4.903000000
C     3.880000000     1.066000000    -2.331000000
C     3.607000000     2.265000000    -1.644000000
H     4.128000000     2.465000000    -0.711000000
C     2.658000000     3.201000000    -2.153000000
O     2.342000000     4.241000000    -1.389000000
C     1.139000000     4.100000000    -0.595000000
C     1.342000000     4.430000000     0.901000000
C     0.281000000     4.324000000     1.798000000
H    -0.695000000     4.176000000     1.343000000
C     2.588000000     4.497000000     1.461000000
H     3.471000000     4.590000000     0.833000000
O    -0.039000000     4.838000000    -1.129000000
H     0.831000000     3.058000000    -0.763000000
C     2.002000000     2.954000000    -3.321000000
C     0.913000000     3.983000000    -3.704000000
H     0.889000000     4.030000000    -4.795000000
H     1.197000000     4.945000000    -3.273000000
C    -0.408000000     3.581000000    -3.110000000
C    -1.296000000     2.832000000    -3.865000000
H    -1.050000000     2.325000000    -4.794000000
C    -0.831000000     4.097000000    -1.904000000
C    -2.105000000     3.776000000    -1.513000000
H    -2.491000000     4.308000000    -0.647000000
C    -2.924000000     2.966000000    -2.178000000
O    -4.073000000     2.711000000    -1.553000000
C    -4.116000000     1.368000000    -0.923000000
C    -4.689000000     1.322000000     0.469000000
C    -4.684000000     2.423000000     1.349000000
H    -4.154000000     3.318000000     1.032000000
C    -5.265000000     0.159000000     0.999000000
H    -5.383000000    -0.687000000     0.327000000
O    -4.724000000     0.432000000    -1.823000000
H    -3.046000000     1.207000000    -0.728000000
C    -2.512000000     2.480000000    -3.452000000
C    -3.430000000     1.480000000    -4.249000000
H    -3.154000000     1.524000000    -5.305000000
H    -4.458000000     1.817000000    -4.102000000
C    -3.243000000     0.105000000    -3.723000000
C    -3.933000000    -0.390000000    -2.603000000
C    -3.697000000    -1.736000000    -2.208000000
H    -4.342000000    -2.167000000    -1.447000000
C    -2.680000000    -2.504000000    -2.816000000
O    -2.390000000    -3.673000000    -2.182000000
C    -1.140000000    -3.790000000    -1.577000000
H    -0.784000000    -2.774000000    -1.350000000
C    -1.365000000    -4.657000000    -0.332000000
C    -0.320000000    -5.498000000     0.173000000
H     0.563000000    -5.711000000    -0.424000000
C    -2.451000000    -4.464000000     0.546000000
H    -3.202000000    -3.741000000     0.239000000
C    -2.491000000    -5.037000000     1.869000000
O    -3.516000000    -4.769000000     2.759000000
C    -1.527000000    -5.855000000     2.303000000
H    -1.588000000    -6.183000000     3.337000000
C    -0.410000000    -6.078000000     1.471000000
O     0.627000000    -6.840000000     1.991000000
C     1.911000000    -6.493000000     1.887000000
C     2.438000000    -5.368000000     2.604000000
H     1.932000000    -4.825000000     3.398000000
C     2.734000000    -7.192000000     0.976000000
H     2.330000000    -7.966000000     0.328000000
C     3.962000000    -6.616000000     0.665000000
H     4.519000000    -7.118000000    -0.122000000
C     4.481000000    -5.528000000     1.285000000
H     5.489000000    -5.211000000     1.030000000
C     3.742000000    -4.935000000     2.281000000
O     4.164000000    -3.719000000     2.910000000
C     4.553000000    -2.584000000     2.190000000
C     5.286000000    -1.609000000     2.861000000
H     5.498000000    -1.806000000     3.909000000
C     5.706000000    -0.517000000     2.201000000
O     6.334000000     0.459000000     2.981000000
C     6.262000000     1.795000000     2.759000000
C     5.133000000     2.581000000     3.016000000
H     4.255000000     2.088000000     3.425000000
C     7.452000000     2.431000000     2.346000000
H     8.378000000     1.906000000     2.121000000
C     7.459000000     3.819000000     2.273000000
H     8.331000000     4.340000000     1.886000000
C     6.379000000     4.569000000     2.629000000
H     6.418000000     5.655000000     2.665000000
C     5.201000000     3.941000000     3.053000000
O     4.071000000     4.646000000     3.385000000
C     2.784000000     4.528000000     2.835000000
C     1.697000000     4.593000000     3.727000000
H     1.741000000     4.453000000     4.804000000
C     0.486000000     4.432000000     3.173000000
O    -0.660000000     4.414000000     4.030000000
C    -1.884000000     4.916000000     3.776000000
C    -2.949000000     4.017000000     3.786000000
H    -2.782000000     2.975000000     4.048000000
C    -2.122000000     6.238000000     3.384000000
H    -1.287000000     6.932000000     3.329000000
C    -3.414000000     6.664000000     3.006000000
H    -3.602000000     7.724000000     2.855000000
C    -4.445000000     5.785000000     3.077000000
H    -5.468000000     6.058000000     2.833000000
C    -4.268000000     4.438000000     3.445000000
O    -5.290000000     3.461000000     3.475000000
C    -5.348000000     2.374000000     2.600000000
C    -6.040000000     1.217000000     2.967000000
H    -6.652000000     1.173000000     3.864000000
C    -5.930000000     0.089000000     2.207000000
O    -6.725000000    -1.042000000     2.510000000
C    -6.315000000    -2.331000000     2.132000000
C    -7.070000000    -3.149000000     1.334000000
H    -7.927000000    -2.756000000     0.793000000
C    -6.751000000    -4.491000000     1.072000000
H    -7.334000000    -5.080000000     0.369000000
C    -5.543000000    -4.992000000     1.524000000
H    -5.153000000    -5.971000000     1.256000000
C    -4.689000000    -4.218000000     2.343000000
C    -5.101000000    -2.906000000     2.641000000
H    -4.493000000    -2.296000000     3.304000000
C    -0.982000000    -1.633000000     1.844000000
H    -1.700000000    -2.265000000     2.360000000
C    -1.248000000    -1.015000000     0.617000000
H    -2.249000000    -1.139000000     0.211000000
C    -0.374000000    -0.096000000     0.033000000
H    -0.622000000     0.220000000    -0.993000000
C     0.904000000     0.056000000     0.556000000
H     1.664000000     0.634000000     0.038000000
C     1.184000000    -0.627000000     1.739000000
H     2.164000000    -0.608000000     2.209000000
C     0.258000000    -1.352000000     2.415000000
C     0.534000000    -1.784000000     3.830000000
O     1.409000000    -1.246000000     4.442000000
O    -0.125000000    -2.621000000     4.364000000
O    -2.570000000    -5.230000000     6.410000000
H    -2.645000000    -4.459000000     5.847000000
H    -1.748000000    -5.101000000     6.883000000
O    -0.563000000    -5.258000000     8.872000000
H    -0.299000000    -5.271000000     7.952000000
H    -0.181000000    -6.054000000     9.242000000
O     3.870000000    -0.202000000     5.117000000
H     3.997000000    -0.873000000     5.787000000
H     3.034000000    -0.427000000     4.709000000
O     1.151000000     0.918000000     8.152000000
H     0.894000000    -0.003000000     8.123000000
H     1.401000000     1.068000000     9.064000000
O    -3.187000000    -0.170000000     4.183000000
H    -3.023000000     0.399000000     3.431000000
H    -2.440000000    -0.020000000     4.763000000
O    -5.075000000    -0.073000000     6.445000000
H    -5.886000000    -0.570000000     6.342000000
H    -4.636000000    -0.154000000     5.598000000
O    -2.659000000    -2.847000000     5.071000000
H    -2.098000000    -3.076000000     4.330000000
H    -2.841000000    -1.915000000     4.954000000
O     1.033000000     1.347000000     4.501000000
H     1.621000000     1.874000000     5.042000000
H     1.513000000     0.533000000     4.348000000
O    -1.112000000     0.440000000     5.761000000
H    -0.394000000     0.868000000     5.295000000
H    -0.711000000    -0.329000000     6.166000000
O     2.686000000    -2.741000000     6.242000000
H     2.803000000    -3.617000000     5.874000000
H     2.249000000    -2.246000000     5.550000000
O     0.340000000    -4.900000000     5.838000000
H     0.269000000    -5.638000000     5.232000000
H     0.351000000    -4.127000000     5.273000000
O     1.873000000     2.979000000     6.493000000
H     1.445000000     2.268000000     6.971000000
H     1.699000000     3.760000000     7.019000000
O    -2.169000000     0.021000000     9.230000000
H    -1.536000000    -0.570000000     8.822000000
H    -2.206000000     0.775000000     8.642000000
O    -3.695000000    -2.660000000     7.666000000
H    -4.011000000    -1.777000000     7.473000000
H    -3.136000000    -2.882000000     6.922000000
O    -2.637000000     2.186000000     7.363000000
H    -3.562000000     2.043000000     7.162000000
H    -2.174000000     1.893000000     6.578000000
O     3.466000000    -5.727000000     6.097000000
H     4.261000000    -6.091000000     5.707000000
H     2.758000000    -6.262000000     5.738000000
O     2.765000000    -2.156000000     8.903000000
H     3.148000000    -1.306000000     9.120000000
H     2.999000000    -2.298000000     7.986000000
O    -1.396000000     1.554000000     2.604000000
H    -0.722000000     2.018000000     3.100000000
H    -0.920000000     0.868000000     2.135000000
O    -0.247000000    -1.998000000     7.357000000
H    -0.653000000    -2.386000000     6.582000000
H     0.693000000    -2.056000000     7.188000000
