215
-1452.07429
C     5.117000000    -0.271000000     1.393000000
H     5.769000000     0.488000000     0.968000000
C     4.320000000    -1.141000000     0.717000000
C     3.769000000    -2.316000000     1.337000000
H     3.120000000    -2.981000000     0.772000000
C     4.065000000    -0.952000000    -0.760000000
O     4.935000000     0.060000000    -1.385000000
H     3.031000000    -0.596000000    -0.873000000
O     4.175000000    -2.114000000    -1.558000000
C     3.165000000    -2.344000000    -2.455000000
C     2.250000000    -3.338000000    -2.094000000
H     2.387000000    -3.877000000    -1.160000000
C     1.146000000    -3.555000000    -2.882000000
O     0.168000000    -4.423000000    -2.346000000
C     0.857000000    -2.792000000    -4.018000000
C    -0.523000000    -2.794000000    -4.739000000
H    -0.422000000    -2.409000000    -5.755000000
C    -1.571000000    -2.010000000    -4.073000000
C    -1.689000000    -0.691000000    -4.531000000
H    -1.142000000    -0.227000000    -5.347000000
H    -0.925000000    -3.810000000    -4.724000000
C     1.810000000    -1.826000000    -4.387000000
H     1.624000000    -1.177000000    -5.239000000
C     2.938000000    -1.631000000    -3.597000000
C     3.909000000    -0.539000000    -4.065000000
H     3.870000000    -0.357000000    -5.141000000
H     4.888000000    -0.996000000    -3.908000000
C     3.745000000     0.784000000    -3.337000000
C     2.915000000     1.758000000    -3.965000000
H     2.613000000     1.524000000    -4.983000000
C     4.281000000     1.027000000    -2.062000000
C     3.781000000     2.116000000    -1.304000000
H     4.021000000     2.183000000    -0.246000000
C     2.771000000     2.997000000    -1.843000000
O     2.443000000     4.046000000    -1.058000000
C     1.166000000     3.978000000    -0.363000000
C     1.191000000     4.298000000     1.114000000
C     0.023000000     4.505000000     1.843000000
H    -0.945000000     4.519000000     1.349000000
C     2.414000000     4.323000000     1.859000000
H     3.309000000     3.904000000     1.407000000
O     0.228000000     4.771000000    -1.121000000
H     0.842000000     2.929000000    -0.423000000
C     2.353000000     2.872000000    -3.180000000
C     1.438000000     3.806000000    -3.791000000
H     1.448000000     3.818000000    -4.883000000
H     1.753000000     4.842000000    -3.649000000
C    -0.027000000     3.607000000    -3.296000000
C    -0.776000000     2.786000000    -4.054000000
H    -0.310000000     2.378000000    -4.948000000
C    -0.525000000     4.123000000    -2.099000000
C    -1.755000000     3.688000000    -1.679000000
H    -2.122000000     3.920000000    -0.683000000
C    -2.555000000     2.946000000    -2.536000000
O    -3.787000000     2.588000000    -2.018000000
C    -3.685000000     1.370000000    -1.331000000
C    -4.413000000     1.392000000     0.098000000
C    -4.719000000     2.560000000     0.775000000
H    -4.456000000     3.512000000     0.320000000
C    -4.806000000     0.173000000     0.648000000
H    -4.686000000    -0.735000000     0.063000000
O    -4.284000000     0.412000000    -2.205000000
H    -2.644000000     1.078000000    -1.125000000
C    -2.035000000     2.368000000    -3.670000000
C    -2.932000000     1.473000000    -4.559000000
H    -2.722000000     1.552000000    -5.628000000
H    -3.977000000     1.775000000    -4.460000000
C    -2.686000000     0.062000000    -3.987000000
C    -3.419000000    -0.405000000    -2.909000000
C    -3.283000000    -1.742000000    -2.395000000
H    -3.835000000    -2.104000000    -1.532000000
C    -2.358000000    -2.487000000    -3.030000000
O    -2.094000000    -3.668000000    -2.339000000
C    -0.954000000    -3.897000000    -1.530000000
H    -0.704000000    -2.950000000    -1.029000000
C    -1.364000000    -4.757000000    -0.328000000
C    -0.359000000    -5.384000000     0.429000000
H     0.675000000    -5.323000000     0.097000000
C    -2.706000000    -4.846000000     0.091000000
H    -3.479000000    -4.265000000    -0.404000000
C    -3.019000000    -5.556000000     1.298000000
O    -4.317000000    -5.672000000     1.732000000
C    -2.008000000    -6.201000000     2.023000000
H    -2.260000000    -6.671000000     2.970000000
C    -0.719000000    -6.174000000     1.556000000
O     0.153000000    -6.772000000     2.333000000
C     1.441000000    -6.446000000     2.162000000
C     1.948000000    -5.359000000     2.849000000
H     1.299000000    -4.650000000     3.357000000
C     2.341000000    -7.217000000     1.352000000
H     1.977000000    -8.132000000     0.891000000
C     3.705000000    -6.849000000     1.246000000
H     4.472000000    -7.356000000     0.665000000
C     4.080000000    -5.710000000     1.881000000
H     5.067000000    -5.256000000     1.836000000
C     3.205000000    -4.932000000     2.627000000
O     3.626000000    -3.764000000     3.257000000
C     4.069000000    -2.577000000     2.633000000
C     4.790000000    -1.640000000     3.312000000
H     4.911000000    -1.644000000     4.392000000
C     5.180000000    -0.478000000     2.770000000
O     5.811000000     0.454000000     3.534000000
C     5.722000000     1.845000000     3.347000000
C     4.613000000     2.563000000     3.804000000
H     3.705000000     2.022000000     4.057000000
C     6.950000000     2.472000000     3.033000000
H     7.809000000     1.900000000     2.690000000
C     6.999000000     3.824000000     3.036000000
H     7.849000000     4.426000000     2.725000000
C     5.852000000     4.556000000     3.237000000
H     5.823000000     5.635000000     3.107000000
C     4.673000000     3.956000000     3.702000000
O     3.608000000     4.781000000     3.920000000
C     2.432000000     4.686000000     3.230000000
C     1.265000000     4.876000000     3.902000000
H     1.298000000     5.148000000     4.954000000
C     0.021000000     4.762000000     3.226000000
O    -1.171000000     4.984000000     3.960000000
C    -2.377000000     5.219000000     3.342000000
C    -3.355000000     4.238000000     3.368000000
H    -3.133000000     3.261000000     3.789000000
C    -2.738000000     6.457000000     2.799000000
H    -2.052000000     7.299000000     2.820000000
C    -3.988000000     6.727000000     2.242000000
H    -4.205000000     7.681000000     1.768000000
C    -4.994000000     5.770000000     2.373000000
H    -5.969000000     5.920000000     1.916000000
C    -4.671000000     4.525000000     2.973000000
O    -5.550000000     3.582000000     2.797000000
C    -5.319000000     2.431000000     2.037000000
C    -5.692000000     1.223000000     2.575000000
H    -5.953000000     1.178000000     3.629000000
C    -5.393000000     0.075000000     1.892000000
O    -5.551000000    -1.153000000     2.498000000
C    -5.763000000    -2.361000000     1.899000000
C    -6.736000000    -2.474000000     0.871000000
H    -7.322000000    -1.624000000     0.528000000
C    -7.001000000    -3.716000000     0.268000000
H    -7.750000000    -3.811000000    -0.514000000
C    -6.219000000    -4.860000000     0.610000000
H    -6.360000000    -5.785000000     0.056000000
C    -5.179000000    -4.662000000     1.605000000
C    -4.931000000    -3.407000000     2.158000000
H    -4.105000000    -3.161000000     2.820000000
C    -0.382000000    -1.633000000     1.673000000
H    -0.903000000    -2.543000000     1.959000000
C    -0.665000000    -0.846000000     0.551000000
H    -1.495000000    -1.107000000    -0.101000000
C     0.126000000     0.289000000     0.281000000
H    -0.008000000     0.866000000    -0.739000000
C     1.126000000     0.625000000     1.166000000
H     1.772000000     1.461000000     0.912000000
C     1.366000000    -0.098000000     2.317000000
H     2.091000000     0.276000000     3.036000000
C     0.566000000    -1.229000000     2.628000000
C     0.796000000    -1.987000000     3.930000000
O     1.513000000    -1.491000000     4.813000000
O    -0.010000000    -2.827000000     4.243000000
O    -2.854000000    -4.889000000     5.560000000
H    -2.779000000    -3.935000000     5.540000000
H    -1.950000000    -5.199000000     5.628000000
O    -1.550000000    -3.599000000     8.531000000
H    -1.497000000    -3.730000000     7.584000000
H    -1.170000000    -4.394000000     8.905000000
O     2.248000000     0.179000000     8.299000000
H     1.377000000     0.069000000     8.679000000
H     2.430000000    -0.657000000     7.870000000
O     6.665000000    -2.843000000     6.179000000
H     7.279000000    -3.154000000     5.514000000
H     5.960000000    -3.490000000     6.175000000
O    -0.605000000    -0.177000000     6.213000000
H    -0.442000000    -0.308000000     7.148000000
H     0.205000000    -0.458000000     5.788000000
O    -3.697000000     0.745000000     5.392000000
H    -2.995000000     1.147000000     4.881000000
H    -3.603000000    -0.194000000     5.229000000
O    -2.265000000    -2.291000000     5.623000000
H    -1.558000000    -2.492000000     5.010000000
H    -2.108000000    -1.383000000     5.881000000
O     5.473000000    -0.616000000     7.622000000
H     6.058000000    -1.214000000     7.155000000
H     5.860000000     0.249000000     7.490000000
O     1.824000000     1.172000000     5.243000000
H     2.251000000     1.477000000     6.044000000
H     2.182000000     0.296000000     5.100000000
O    -0.919000000     2.796000000     6.485000000
H    -0.845000000     3.121000000     5.587000000
H    -1.153000000     1.873000000     6.387000000
O     2.001000000    -3.212000000     7.120000000
H     1.166000000    -3.578000000     7.412000000
H     1.760000000    -2.576000000     6.446000000
O    -0.041000000    -4.657000000     6.125000000
H     0.582000000    -5.335000000     5.862000000
H    -0.127000000    -4.098000000     5.353000000
O     3.608000000     2.909000000     7.006000000
H     3.745000000     2.536000000     7.877000000
H     2.724000000     3.275000000     7.039000000
O     4.575000000    -4.614000000     6.046000000
H     3.731000000    -4.419000000     6.454000000
H     4.435000000    -5.447000000     5.594000000
O     4.432000000    -7.287000000     4.875000000
H     4.948000000    -8.086000000     4.983000000
H     3.532000000    -7.595000000     4.771000000
O     1.221000000    -6.988000000     5.312000000
H     0.966000000    -7.416000000     4.495000000
H     1.248000000    -7.696000000     5.955000000
O     4.198000000    -3.319000000     8.624000000
H     4.772000000    -2.749000000     8.113000000
H     3.345000000    -3.248000000     8.194000000
O    -0.782000000     1.834000000     3.906000000
H     0.044000000     1.483000000     4.241000000
H    -0.885000000     1.423000000     3.048000000
O    -0.187000000    -1.172000000     8.712000000
H    -0.422000000    -2.100000000     8.733000000
H    -0.274000000    -0.882000000     9.620000000
