215
-1458.57072
C     4.205000000    -0.447000000     2.091000000
H     3.951000000     0.544000000     1.723000000
C     4.247000000    -1.509000000     1.134000000
C     4.265000000    -2.855000000     1.636000000
H     4.199000000    -3.755000000     1.029000000
C     4.221000000    -1.171000000    -0.367000000
O     5.049000000    -0.066000000    -0.515000000
H     3.167000000    -0.899000000    -0.528000000
O     4.590000000    -2.344000000    -1.175000000
C     3.691000000    -2.559000000    -2.199000000
C     2.775000000    -3.592000000    -1.929000000
H     2.872000000    -4.160000000    -1.007000000
C     1.628000000    -3.620000000    -2.676000000
O     0.513000000    -4.332000000    -2.161000000
C     1.425000000    -2.851000000    -3.828000000
C     0.116000000    -2.924000000    -4.634000000
H     0.459000000    -2.588000000    -5.615000000
C    -0.972000000    -1.949000000    -4.263000000
C    -1.065000000    -0.707000000    -4.894000000
H    -0.375000000    -0.405000000    -5.677000000
H    -0.289000000    -3.912000000    -4.863000000
C     2.457000000    -1.979000000    -4.215000000
H     2.394000000    -1.356000000    -5.104000000
C     3.577000000    -1.790000000    -3.335000000
C     4.533000000    -0.645000000    -3.476000000
H     4.712000000    -0.504000000    -4.544000000
H     5.425000000    -0.988000000    -2.948000000
C     4.201000000     0.637000000    -2.758000000
C     3.468000000     1.617000000    -3.442000000
H     3.355000000     1.386000000    -4.498000000
C     4.536000000     0.882000000    -1.373000000
C     4.082000000     2.071000000    -0.728000000
H     4.259000000     2.302000000     0.320000000
C     3.248000000     2.976000000    -1.424000000
O     2.723000000     3.956000000    -0.654000000
C     1.311000000     3.959000000    -0.325000000
C     1.113000000     4.347000000     1.107000000
C    -0.186000000     4.150000000     1.661000000
H    -1.010000000     3.881000000     1.005000000
C     2.123000000     4.678000000     1.968000000
H     3.144000000     4.655000000     1.595000000
O     0.525000000     4.774000000    -1.258000000
H     0.968000000     2.932000000    -0.518000000
C     2.938000000     2.731000000    -2.780000000
C     2.123000000     3.791000000    -3.570000000
H     2.336000000     3.691000000    -4.637000000
H     2.535000000     4.762000000    -3.286000000
C     0.590000000     3.679000000    -3.401000000
C    -0.137000000     2.831000000    -4.243000000
H     0.333000000     2.309000000    -5.072000000
C    -0.140000000     4.179000000    -2.301000000
C    -1.535000000     3.991000000    -2.172000000
H    -2.126000000     4.421000000    -1.367000000
C    -2.214000000     3.118000000    -3.061000000
O    -3.471000000     2.791000000    -2.713000000
C    -3.761000000     1.512000000    -2.056000000
C    -4.891000000     1.583000000    -1.028000000
C    -4.952000000     2.699000000    -0.195000000
H    -4.428000000     3.615000000    -0.457000000
C    -5.741000000     0.469000000    -0.807000000
H    -5.656000000    -0.400000000    -1.455000000
O    -4.039000000     0.614000000    -3.169000000
H    -2.845000000     1.305000000    -1.483000000
C    -1.466000000     2.564000000    -4.098000000
C    -2.132000000     1.573000000    -5.086000000
H    -1.574000000     1.669000000    -6.020000000
H    -3.187000000     1.768000000    -5.292000000
C    -2.040000000     0.226000000    -4.456000000
C    -2.938000000    -0.164000000    -3.473000000
C    -3.003000000    -1.509000000    -3.036000000
H    -3.811000000    -1.670000000    -2.327000000
C    -1.865000000    -2.276000000    -3.223000000
O    -1.673000000    -3.444000000    -2.386000000
C    -0.502000000    -3.498000000    -1.495000000
H    -0.188000000    -2.460000000    -1.314000000
C    -0.943000000    -4.067000000    -0.185000000
C    -0.312000000    -5.134000000     0.428000000
H     0.513000000    -5.638000000    -0.069000000
C    -2.105000000    -3.536000000     0.336000000
H    -2.663000000    -2.746000000    -0.161000000
C    -2.607000000    -4.011000000     1.508000000
O    -3.681000000    -3.309000000     2.070000000
C    -1.897000000    -4.950000000     2.279000000
H    -2.330000000    -5.273000000     3.222000000
C    -0.742000000    -5.546000000     1.703000000
O    -0.001000000    -6.511000000     2.440000000
C     1.384000000    -6.465000000     2.450000000
C     2.098000000    -5.373000000     2.989000000
H     1.538000000    -4.562000000     3.447000000
C     2.133000000    -7.462000000     1.800000000
H     1.587000000    -8.278000000     1.333000000
C     3.527000000    -7.516000000     1.879000000
H     4.081000000    -8.376000000     1.511000000
C     4.186000000    -6.381000000     2.395000000
H     5.271000000    -6.315000000     2.384000000
C     3.476000000    -5.333000000     2.962000000
O     4.200000000    -4.282000000     3.632000000
C     4.295000000    -3.018000000     3.025000000
C     4.239000000    -2.021000000     3.945000000
H     4.116000000    -2.269000000     4.996000000
C     4.228000000    -0.722000000     3.445000000
O     4.332000000     0.262000000     4.470000000
C     4.706000000     1.539000000     4.115000000
C     3.820000000     2.519000000     4.454000000
H     2.974000000     2.224000000     5.070000000
C     5.906000000     1.847000000     3.465000000
H     6.660000000     1.082000000     3.295000000
C     6.163000000     3.142000000     3.065000000
H     7.140000000     3.440000000     2.695000000
C     5.202000000     4.097000000     3.355000000
H     5.383000000     5.109000000     3.003000000
C     4.045000000     3.798000000     4.029000000
O     3.116000000     4.766000000     4.142000000
C     1.984000000     4.735000000     3.346000000
C     0.711000000     4.548000000     3.903000000
H     0.464000000     4.460000000     4.958000000
C    -0.356000000     4.236000000     3.013000000
O    -1.664000000     4.016000000     3.533000000
C    -2.809000000     4.653000000     3.147000000
C    -3.847000000     3.884000000     2.525000000
H    -3.763000000     2.800000000     2.507000000
C    -3.007000000     6.013000000     3.321000000
H    -2.243000000     6.372000000     4.006000000
C    -4.173000000     6.635000000     2.992000000
H    -4.274000000     7.696000000     3.209000000
C    -5.198000000     5.899000000     2.330000000
H    -6.046000000     6.437000000     1.915000000
C    -5.082000000     4.504000000     2.192000000
O    -6.129000000     3.786000000     1.729000000
C    -5.904000000     2.742000000     0.864000000
C    -6.710000000     1.534000000     1.100000000
H    -7.374000000     1.470000000     1.958000000
C    -6.628000000     0.429000000     0.304000000
O    -7.447000000    -0.644000000     0.511000000
C    -6.785000000    -1.856000000     0.600000000
C    -7.477000000    -3.013000000     0.291000000
H    -8.509000000    -2.921000000    -0.037000000
C    -6.943000000    -4.268000000     0.543000000
H    -7.673000000    -5.071000000     0.612000000
C    -5.678000000    -4.377000000     1.135000000
H    -5.288000000    -5.363000000     1.371000000
C    -4.987000000    -3.271000000     1.536000000
C    -5.519000000    -1.990000000     1.211000000
H    -4.916000000    -1.137000000     1.511000000
C    -1.568000000     0.268000000     1.753000000
H    -2.566000000     0.233000000     2.183000000
C    -1.404000000    -0.058000000     0.421000000
H    -2.294000000    -0.172000000    -0.193000000
C    -0.158000000     0.049000000    -0.182000000
H    -0.128000000    -0.045000000    -1.322000000
C     0.978000000     0.322000000     0.584000000
H     1.914000000     0.378000000     0.034000000
C     0.870000000     0.544000000     1.954000000
H     1.724000000     0.813000000     2.570000000
C    -0.446000000     0.649000000     2.523000000
C    -0.563000000     0.995000000     3.973000000
O     0.446000000     1.257000000     4.613000000
O    -1.603000000     0.722000000     4.516000000
O    -3.903000000     2.016000000     5.343000000
H    -4.582000000     1.429000000     5.012000000
H    -3.092000000     1.689000000     4.952000000
O     2.642000000     1.625000000     9.845000000
H     2.400000000     0.823000000     9.382000000
H     3.532000000     1.814000000     9.548000000
O    -0.982000000    -1.509000000    10.477000000
H    -1.829000000    -1.859000000    10.201000000
H    -0.774000000    -0.842000000     9.823000000
O    -2.838000000     0.880000000     9.296000000
H    -3.690000000     1.209000000     9.010000000
H    -2.405000000     0.603000000     8.489000000
O    -0.908000000     0.036000000     7.110000000
H    -1.087000000     0.440000000     6.261000000
H    -0.041000000    -0.357000000     7.009000000
O     1.994000000    -0.245000000     7.732000000
H     2.760000000    -0.406000000     7.182000000
H     1.887000000    -1.052000000     8.236000000
O    -4.820000000     2.077000000     8.064000000
H    -5.643000000     1.589000000     8.104000000
H    -4.561000000     2.035000000     7.144000000
O     1.433000000    -1.506000000     4.686000000
H     1.618000000    -1.645000000     3.757000000
H     1.239000000    -0.572000000     4.754000000
O     3.400000000    -3.712000000     7.693000000
H     2.644000000    -3.929000000     7.147000000
H     3.733000000    -4.559000000     7.988000000
O     0.410000000     2.821000000     7.239000000
H    -0.001000000     2.227000000     7.867000000
H     0.430000000     2.327000000     6.419000000
O     4.746000000     3.601000000     7.141000000
H     5.285000000     4.201000000     7.657000000
H     4.053000000     4.153000000     6.779000000
O     1.149000000    -3.888000000     6.155000000
H     0.230000000    -4.138000000     6.059000000
H     1.194000000    -2.999000000     5.802000000
O    -4.789000000     4.903000000     5.930000000
H    -4.801000000     3.959000000     5.770000000
H    -3.950000000     5.062000000     6.362000000
O    -1.929000000    -4.213000000     6.154000000
H    -2.787000000    -4.035000000     6.539000000
H    -1.822000000    -3.536000000     5.486000000
O    -5.865000000     0.192000000     4.754000000
H    -6.279000000     0.164000000     5.617000000
H    -6.502000000    -0.217000000     4.169000000
O    -2.310000000    -1.924000000     4.186000000
H    -2.183000000    -0.989000000     4.346000000
H    -2.277000000    -2.010000000     3.233000000
O     2.072000000     5.051000000     7.791000000
H     1.681000000     4.191000000     7.643000000
H     2.401000000     5.013000000     8.690000000
O    -4.843000000    -2.376000000     5.089000000
H    -3.955000000    -2.296000000     4.743000000
H    -5.134000000    -1.473000000     5.215000000
O    -2.371000000     5.127000000     7.269000000
H    -1.802000000     4.533000000     6.780000000
H    -1.769000000     5.737000000     7.696000000
