215
-1483.53241
C    -0.759000000     1.237000000    -5.667000000
H    -1.293000000     0.291000000    -5.641000000
C     0.516000000     1.384000000    -5.142000000
C     1.064000000     2.663000000    -5.073000000
H     2.049000000     2.746000000    -4.621000000
C     1.203000000     0.206000000    -4.498000000
O     0.859000000    -1.075000000    -5.094000000
H     0.931000000     0.211000000    -3.432000000
O     2.622000000     0.431000000    -4.495000000
C     3.332000000     0.009000000    -3.365000000
C     3.686000000     0.954000000    -2.455000000
H     3.446000000     2.000000000    -2.626000000
C     4.236000000     0.601000000    -1.211000000
O     4.469000000     1.550000000    -0.232000000
C     4.637000000    -0.724000000    -0.951000000
C     5.296000000    -1.173000000     0.365000000
H     5.875000000    -2.099000000     0.368000000
C     4.356000000    -1.369000000     1.604000000
C     3.863000000    -2.655000000     1.892000000
H     4.219000000    -3.423000000     1.209000000
H     6.040000000    -0.403000000     0.580000000
C     4.336000000    -1.672000000    -1.925000000
H     4.645000000    -2.701000000    -1.763000000
C     3.636000000    -1.328000000    -3.100000000
C     3.198000000    -2.496000000    -4.003000000
H     3.909000000    -3.308000000    -3.836000000
H     3.150000000    -2.198000000    -5.052000000
C     1.829000000    -2.855000000    -3.623000000
C     1.535000000    -3.912000000    -2.732000000
H     2.342000000    -4.456000000    -2.247000000
C     0.769000000    -2.089000000    -4.152000000
C    -0.483000000    -2.375000000    -3.708000000
H    -1.268000000    -1.701000000    -4.041000000
C    -0.747000000    -3.396000000    -2.790000000
O    -2.055000000    -3.634000000    -2.425000000
C    -2.326000000    -3.134000000    -1.127000000
C    -3.627000000    -2.270000000    -1.035000000
C    -4.529000000    -2.403000000     0.034000000
H    -4.356000000    -3.210000000     0.743000000
C    -3.798000000    -1.269000000    -1.993000000
H    -3.046000000    -1.110000000    -2.762000000
O    -2.287000000    -4.249000000    -0.276000000
H    -1.493000000    -2.478000000    -0.836000000
C     0.254000000    -4.187000000    -2.322000000
C     0.099000000    -5.322000000    -1.384000000
H     0.879000000    -6.084000000    -1.455000000
H    -0.871000000    -5.765000000    -1.618000000
C     0.025000000    -4.911000000     0.118000000
C     1.139000000    -4.884000000     0.961000000
H     2.126000000    -5.158000000     0.596000000
C    -1.176000000    -4.355000000     0.590000000
C    -1.295000000    -3.785000000     1.810000000
H    -2.246000000    -3.379000000     2.146000000
C    -0.162000000    -3.839000000     2.698000000
O    -0.211000000    -3.326000000     3.981000000
C     0.271000000    -1.982000000     4.094000000
C    -0.648000000    -1.136000000     4.970000000
C    -2.070000000    -1.243000000     4.913000000
H    -2.447000000    -2.078000000     4.329000000
C    -0.175000000    -0.120000000     5.760000000
H     0.884000000     0.019000000     5.957000000
O     1.562000000    -1.924000000     4.690000000
H     0.266000000    -1.429000000     3.144000000
C     1.055000000    -4.377000000     2.254000000
C     2.274000000    -4.164000000     3.077000000
H     2.997000000    -4.863000000     2.651000000
H     2.107000000    -4.500000000     4.103000000
C     2.947000000    -2.804000000     2.948000000
C     2.633000000    -1.742000000     3.723000000
C     3.235000000    -0.519000000     3.541000000
H     2.887000000     0.294000000     4.174000000
C     4.027000000    -0.283000000     2.430000000
O     4.286000000     0.978000000     1.939000000
C     3.582000000     1.491000000     0.827000000
H     2.735000000     0.831000000     0.585000000
C     2.963000000     2.860000000     1.121000000
C     2.451000000     3.577000000     0.059000000
H     2.495000000     3.200000000    -0.959000000
C     2.731000000     3.270000000     2.433000000
H     3.114000000     2.767000000     3.318000000
C     1.984000000     4.444000000     2.680000000
O     1.679000000     4.765000000     3.960000000
C     1.491000000     5.166000000     1.576000000
H     0.749000000     5.941000000     1.751000000
C     1.758000000     4.741000000     0.313000000
O     1.392000000     5.504000000    -0.754000000
C     1.922000000     5.447000000    -2.027000000
C     1.160000000     5.136000000    -3.138000000
H     0.149000000     4.755000000    -3.021000000
C     3.222000000     5.980000000    -2.213000000
H     3.814000000     6.284000000    -1.354000000
C     3.729000000     6.243000000    -3.513000000
H     4.670000000     6.776000000    -3.622000000
C     2.998000000     5.974000000    -4.621000000
H     3.305000000     6.005000000    -5.664000000
C     1.676000000     5.499000000    -4.443000000
O     0.948000000     5.086000000    -5.575000000
C     0.402000000     3.829000000    -5.528000000
C    -0.878000000     3.616000000    -6.064000000
H    -1.470000000     4.463000000    -6.401000000
C    -1.498000000     2.390000000    -6.076000000
O    -2.723000000     2.228000000    -6.665000000
C    -3.653000000     1.436000000    -6.035000000
C    -3.917000000     1.518000000    -4.675000000
H    -3.294000000     2.156000000    -4.053000000
C    -4.338000000     0.542000000    -6.787000000
H    -4.275000000     0.512000000    -7.872000000
C    -5.337000000    -0.287000000    -6.208000000
H    -5.964000000    -0.911000000    -6.840000000
C    -5.552000000    -0.227000000    -4.850000000
H    -6.141000000    -0.955000000    -4.297000000
C    -4.747000000     0.608000000    -4.086000000
O    -4.993000000     0.669000000    -2.758000000
C    -4.835000000    -0.305000000    -1.857000000
C    -5.648000000    -0.415000000    -0.701000000
H    -6.326000000     0.393000000    -0.441000000
C    -5.509000000    -1.476000000     0.202000000
O    -6.400000000    -1.644000000     1.181000000
C    -6.093000000    -1.848000000     2.483000000
C    -5.278000000    -0.895000000     3.162000000
H    -4.858000000    -0.059000000     2.609000000
C    -6.698000000    -2.873000000     3.143000000
H    -7.388000000    -3.554000000     2.651000000
C    -6.449000000    -3.086000000     4.514000000
H    -6.875000000    -3.948000000     5.021000000
C    -5.500000000    -2.308000000     5.200000000
H    -5.395000000    -2.493000000     6.266000000
C    -4.977000000    -1.161000000     4.496000000
O    -4.241000000    -0.206000000     5.203000000
C    -2.900000000    -0.308000000     5.441000000
C    -2.369000000     0.672000000     6.265000000
H    -3.016000000     1.390000000     6.762000000
C    -0.990000000     0.767000000     6.437000000
O    -0.551000000     1.860000000     7.080000000
C     0.605000000     2.514000000     6.610000000
C     1.763000000     2.521000000     7.385000000
H     1.822000000     1.968000000     8.319000000
C     2.880000000     3.198000000     6.914000000
H     3.798000000     3.138000000     7.493000000
C     2.837000000     3.909000000     5.721000000
H     3.676000000     4.414000000     5.249000000
C     1.698000000     3.822000000     4.963000000
C     0.561000000     3.177000000     5.368000000
H    -0.291000000     3.227000000     4.696000000
C    -1.960000000     1.166000000     0.601000000
H    -2.798000000     1.605000000     1.137000000
C    -1.238000000     0.069000000     1.069000000
H    -1.535000000    -0.350000000     2.027000000
C    -0.113000000    -0.339000000     0.430000000
H     0.506000000    -1.206000000     0.731000000
C     0.403000000     0.325000000    -0.685000000
H     1.312000000    -0.088000000    -1.117000000
C    -0.292000000     1.493000000    -1.136000000
H     0.142000000     2.103000000    -1.924000000
C    -1.511000000     1.852000000    -0.555000000
C    -2.205000000     3.079000000    -1.002000000
O    -1.708000000     3.701000000    -1.946000000
O    -3.071000000     3.596000000    -0.384000000
O    -5.985000000     2.879000000     2.794000000
H    -6.277000000     3.725000000     2.455000000
H    -6.744000000     2.534000000     3.264000000
O    -4.634000000     9.570000000    -3.085000000
H    -4.439000000     8.691000000    -3.411000000
H    -3.779000000     9.991000000    -3.006000000
O    -8.368000000     5.839000000    -2.184000000
H    -9.252000000     5.746000000    -1.830000000
H    -8.003000000     4.954000000    -2.153000000
O    -7.456000000     7.756000000    -0.103000000
H    -6.570000000     7.403000000    -0.019000000
H    -7.851000000     7.247000000    -0.811000000
O    -4.982000000     7.873000000     3.026000000
H    -5.567000000     8.506000000     2.611000000
H    -4.522000000     7.458000000     2.297000000
O    -2.115000000     4.885000000     4.795000000
H    -2.704000000     5.547000000     5.157000000
H    -2.339000000     4.848000000     3.865000000
O     0.285000000     9.182000000    -0.951000000
H    -0.526000000     9.280000000    -0.452000000
H     0.070000000     8.551000000    -1.638000000
O    -2.036000000     8.404000000     0.685000000
H    -1.806000000     8.209000000     1.593000000
H    -1.649000000     7.688000000     0.181000000
O    -1.289000000     6.264000000    -0.595000000
H    -0.408000000     5.896000000    -0.515000000
H    -1.826000000     5.534000000    -0.905000000
O    -1.957000000     5.664000000    -3.620000000
H    -2.905000000     5.800000000    -3.605000000
H    -1.817000000     4.896000000    -3.066000000
O    -4.241000000     7.184000000    -4.192000000
H    -4.490000000     6.392000000    -3.716000000
H    -4.972000000     7.346000000    -4.788000000
O    -4.752000000     6.716000000     0.168000000
H    -4.078000000     7.046000000    -0.426000000
H    -4.798000000     5.779000000    -0.019000000
O    -5.746000000     3.077000000     0.058000000
H    -4.805000000     3.236000000    -0.012000000
H    -5.848000000     2.604000000     0.884000000
O    -4.667000000     4.855000000    -2.735000000
H    -4.191000000     4.398000000    -2.041000000
H    -5.289000000     4.207000000    -3.065000000
O    -1.706000000     7.439000000    -6.773000000
H    -2.590000000     7.579000000    -7.115000000
H    -1.834000000     7.269000000    -5.840000000
O    -7.277000000     3.434000000    -2.238000000
H    -7.536000000     2.525000000    -2.393000000
H    -6.841000000     3.417000000    -1.386000000
O    -0.834000000     8.092000000    -3.142000000
H    -1.407000000     7.355000000    -3.352000000
H    -0.235000000     8.150000000    -3.887000000
O    -1.846000000     4.660000000     1.907000000
H    -2.392000000     4.346000000     1.186000000
H    -0.948000000     4.543000000     1.595000000
O    -4.437000000     3.096000000     5.040000000
H    -3.624000000     3.515000000     4.758000000
H    -4.952000000     3.009000000     4.238000000
