215
-1475.07388
C     4.101000000     2.334000000     0.791000000
H     3.724000000     3.152000000     0.183000000
C     4.455000000     1.131000000     0.122000000
C     4.947000000     0.041000000     0.884000000
H     5.252000000    -0.861000000     0.360000000
C     3.865000000     0.865000000    -1.240000000
O     3.896000000     1.955000000    -2.169000000
H     2.810000000     0.605000000    -1.069000000
O     4.436000000    -0.282000000    -1.988000000
C     3.621000000    -1.239000000    -2.550000000
C     3.406000000    -2.393000000    -1.786000000
H     3.949000000    -2.468000000    -0.848000000
C     2.518000000    -3.380000000    -2.289000000
O     2.166000000    -4.358000000    -1.398000000
C     1.848000000    -3.207000000    -3.504000000
C     0.765000000    -4.182000000    -3.890000000
H     0.642000000    -4.067000000    -4.969000000
C    -0.460000000    -3.661000000    -3.178000000
C    -1.310000000    -2.784000000    -3.922000000
H    -1.036000000    -2.398000000    -4.900000000
H     0.991000000    -5.190000000    -3.537000000
C     2.109000000    -2.063000000    -4.263000000
H     1.477000000    -1.770000000    -5.097000000
C     2.990000000    -1.073000000    -3.789000000
C     3.106000000     0.305000000    -4.592000000
H     2.797000000     0.125000000    -5.624000000
H     4.163000000     0.580000000    -4.604000000
C     2.371000000     1.488000000    -4.051000000
C     1.140000000     1.831000000    -4.620000000
H     0.674000000     1.286000000    -5.437000000
C     2.716000000     2.251000000    -2.893000000
C     1.893000000     3.282000000    -2.381000000
H     2.311000000     3.788000000    -1.514000000
C     0.681000000     3.479000000    -3.026000000
O    -0.198000000     4.408000000    -2.474000000
C    -1.177000000     3.944000000    -1.573000000
C    -1.304000000     4.883000000    -0.327000000
C    -2.332000000     4.614000000     0.533000000
H    -3.137000000     4.042000000     0.080000000
C    -0.220000000     5.638000000     0.078000000
H     0.573000000     5.863000000    -0.632000000
O    -2.459000000     3.947000000    -2.190000000
H    -0.881000000     2.940000000    -1.233000000
C     0.260000000     2.764000000    -4.152000000
C    -1.095000000     3.105000000    -4.763000000
H    -1.057000000     2.643000000    -5.752000000
H    -1.414000000     4.148000000    -4.804000000
C    -2.151000000     2.270000000    -4.018000000
C    -2.469000000     0.999000000    -4.509000000
H    -2.052000000     0.573000000    -5.418000000
C    -2.816000000     2.738000000    -2.837000000
C    -3.612000000     1.922000000    -2.080000000
H    -4.041000000     2.184000000    -1.116000000
C    -3.794000000     0.569000000    -2.470000000
O    -4.650000000    -0.150000000    -1.661000000
C    -4.032000000    -1.053000000    -0.787000000
C    -4.674000000    -1.121000000     0.592000000
C    -5.153000000     0.052000000     1.175000000
H    -5.115000000     0.953000000     0.568000000
C    -4.625000000    -2.328000000     1.334000000
H    -4.141000000    -3.211000000     0.926000000
O    -4.072000000    -2.375000000    -1.534000000
H    -2.961000000    -0.822000000    -0.693000000
C    -3.237000000     0.099000000    -3.728000000
C    -3.432000000    -1.367000000    -4.176000000
H    -3.262000000    -1.422000000    -5.254000000
H    -4.476000000    -1.673000000    -4.086000000
C    -2.511000000    -2.279000000    -3.339000000
C    -2.935000000    -2.862000000    -2.109000000
C    -2.166000000    -3.711000000    -1.411000000
H    -2.572000000    -4.044000000    -0.459000000
C    -0.904000000    -4.151000000    -1.934000000
O    -0.110000000    -4.809000000    -0.994000000
C     1.074000000    -4.154000000    -0.499000000
H     0.980000000    -3.068000000    -0.352000000
C     1.328000000    -4.552000000     0.930000000
C     2.612000000    -4.776000000     1.423000000
H     3.415000000    -4.900000000     0.701000000
C     0.245000000    -4.475000000     1.795000000
H    -0.721000000    -4.139000000     1.426000000
C     0.489000000    -4.749000000     3.121000000
O    -0.586000000    -4.962000000     4.009000000
C     1.773000000    -4.753000000     3.675000000
H     1.875000000    -4.825000000     4.755000000
C     2.829000000    -4.750000000     2.801000000
O     4.136000000    -4.948000000     3.280000000
C     5.136000000    -4.147000000     2.882000000
C     5.098000000    -2.750000000     2.997000000
H     4.148000000    -2.223000000     3.001000000
C     6.326000000    -4.786000000     2.499000000
H     6.413000000    -5.869000000     2.471000000
C     7.457000000    -4.018000000     2.132000000
H     8.318000000    -4.548000000     1.731000000
C     7.449000000    -2.629000000     2.426000000
H     8.317000000    -2.071000000     2.085000000
C     6.244000000    -1.997000000     2.772000000
O     6.148000000    -0.633000000     2.919000000
C     5.319000000     0.204000000     2.187000000
C     5.022000000     1.434000000     2.849000000
H     5.318000000     1.555000000     3.888000000
C     4.352000000     2.426000000     2.163000000
O     4.194000000     3.606000000     2.898000000
C     3.927000000     4.838000000     2.365000000
C     2.594000000     5.257000000     2.283000000
H     1.835000000     4.625000000     2.737000000
C     4.953000000     5.569000000     1.768000000
H     5.994000000     5.282000000     1.890000000
C     4.609000000     6.836000000     1.194000000
H     5.414000000     7.451000000     0.799000000
C     3.208000000     7.256000000     1.204000000
H     2.944000000     8.209000000     0.753000000
C     2.191000000     6.460000000     1.737000000
O     0.908000000     6.904000000     1.809000000
C    -0.184000000     6.211000000     1.346000000
C    -1.245000000     5.972000000     2.197000000
H    -1.307000000     6.522000000     3.133000000
C    -2.334000000     5.159000000     1.810000000
O    -3.446000000     5.106000000     2.563000000
C    -4.684000000     4.497000000     2.317000000
C    -4.754000000     3.126000000     2.659000000
H    -4.024000000     2.578000000     3.249000000
C    -5.740000000     5.196000000     1.886000000
H    -5.716000000     6.273000000     1.740000000
C    -6.934000000     4.512000000     1.646000000
H    -7.789000000     5.072000000     1.275000000
C    -7.012000000     3.102000000     1.834000000
H    -7.987000000     2.622000000     1.805000000
C    -5.964000000     2.479000000     2.491000000
O    -6.110000000     1.219000000     3.039000000
C    -5.669000000     0.011000000     2.475000000
C    -5.613000000    -1.138000000     3.219000000
H    -5.986000000    -1.039000000     4.235000000
C    -5.138000000    -2.283000000     2.671000000
O    -5.093000000    -3.399000000     3.527000000
C    -4.209000000    -4.404000000     3.443000000
C    -4.535000000    -5.623000000     2.898000000
H    -5.554000000    -5.776000000     2.553000000
C    -3.630000000    -6.645000000     2.724000000
H    -3.962000000    -7.541000000     2.205000000
C    -2.283000000    -6.398000000     3.054000000
H    -1.459000000    -6.996000000     2.673000000
C    -1.933000000    -5.199000000     3.658000000
C    -2.905000000    -4.223000000     3.869000000
H    -2.652000000    -3.272000000     4.330000000
C    -1.531000000     0.139000000     2.392000000
H    -2.186000000    -0.273000000     3.155000000
C    -1.284000000    -0.603000000     1.214000000
H    -1.763000000    -1.571000000     1.090000000
C    -0.451000000    -0.102000000     0.173000000
H    -0.305000000    -0.676000000    -0.767000000
C     0.183000000     1.134000000     0.270000000
H     0.705000000     1.571000000    -0.577000000
C    -0.106000000     1.893000000     1.479000000
H     0.282000000     2.878000000     1.728000000
C    -0.938000000     1.417000000     2.530000000
C    -0.999000000     2.122000000     3.847000000
O    -0.133000000     2.979000000     4.049000000
O    -1.730000000     1.750000000     4.757000000
O    -5.828000000     1.913000000     6.217000000
H    -5.843000000     2.197000000     5.303000000
H    -5.408000000     1.053000000     6.194000000
O     0.469000000    -2.156000000     5.774000000
H     0.643000000    -2.234000000     6.712000000
H     0.986000000    -1.400000000     5.496000000
O     4.478000000    -1.514000000     5.811000000
H     4.573000000    -1.367000000     4.870000000
H     4.306000000    -0.644000000     6.173000000
O    -4.813000000     3.553000000     7.847000000
H    -5.076000000     4.325000000     7.345000000
H    -5.192000000     2.816000000     7.367000000
O    -5.568000000     5.260000000     5.510000000
H    -5.082000000     6.076000000     5.389000000
H    -5.861000000     5.024000000     4.630000000
O     2.147000000    -1.128000000     1.865000000
H     1.840000000    -0.608000000     1.123000000
H     1.348000000    -1.477000000     2.260000000
O     3.363000000     0.478000000     7.587000000
H     2.705000000     0.553000000     6.896000000
H     3.372000000     1.339000000     8.005000000
O     1.864000000     3.089000000     5.981000000
H     1.080000000     3.301000000     5.474000000
H     2.327000000     3.923000000     6.066000000
O    -1.034000000     3.564000000     8.853000000
H    -1.345000000     3.712000000     7.960000000
H    -1.561000000     2.831000000     9.172000000
O    -0.868000000     1.366000000     7.131000000
H    -1.255000000     1.447000000     6.259000000
H    -0.033000000     1.829000000     7.066000000
O     1.770000000     0.211000000     5.227000000
H     2.203000000     0.729000000     4.548000000
H     1.077000000     0.782000000     5.558000000
O     0.069000000     5.290000000     5.266000000
H    -0.010000000     4.728000000     4.496000000
H    -0.467000000     4.860000000     5.933000000
O    -3.709000000    -0.008000000     5.981000000
H    -3.342000000    -0.837000000     6.288000000
H    -2.970000000     0.447000000     5.578000000
O     1.599000000     4.184000000     9.216000000
H     0.659000000     4.046000000     9.104000000
H     1.931000000     3.339000000     9.519000000
O    -1.981000000    -2.233000000     6.602000000
H    -1.313000000    -1.885000000     6.011000000
H    -1.485000000    -2.640000000     7.312000000
O     2.024000000     6.821000000     5.978000000
H     2.744000000     6.194000000     6.045000000
H     1.297000000     6.312000000     5.619000000
O    -2.274000000    -0.149000000     9.156000000
H    -2.677000000     0.615000000     9.570000000
H    -1.722000000     0.217000000     8.465000000
O    -2.313000000     3.865000000     6.461000000
H    -2.193000000     3.220000000     5.764000000
H    -3.231000000     3.772000000     6.717000000
O    -4.213000000     7.637000000     5.225000000
H    -3.733000000     7.906000000     6.008000000
H    -3.607000000     7.805000000     4.503000000
