215
-1480.78031
C     4.841000000     2.123000000     0.365000000
H     4.767000000     2.866000000    -0.426000000
C     4.688000000     0.739000000     0.227000000
C     4.847000000    -0.137000000     1.337000000
H     4.751000000    -1.207000000     1.173000000
C     4.086000000     0.145000000    -1.028000000
O     4.276000000     1.060000000    -2.131000000
H     2.996000000     0.004000000    -0.981000000
O     4.605000000    -1.193000000    -1.343000000
C     3.782000000    -2.213000000    -1.808000000
C     3.275000000    -3.154000000    -0.882000000
H     3.713000000    -3.289000000     0.104000000
C     2.253000000    -4.000000000    -1.243000000
O     1.785000000    -4.767000000    -0.194000000
C     1.720000000    -3.973000000    -2.600000000
C     0.421000000    -4.852000000    -2.864000000
H     0.459000000    -5.281000000    -3.867000000
C    -0.876000000    -4.285000000    -2.399000000
C    -1.626000000    -3.505000000    -3.344000000
H    -1.184000000    -3.381000000    -4.330000000
H     0.476000000    -5.763000000    -2.265000000
C     2.188000000    -2.988000000    -3.472000000
H     1.793000000    -2.879000000    -4.479000000
C     3.197000000    -2.093000000    -3.075000000
C     3.574000000    -1.016000000    -4.091000000
H     3.323000000    -1.338000000    -5.104000000
H     4.658000000    -0.924000000    -4.001000000
C     2.799000000     0.297000000    -3.894000000
C     1.754000000     0.560000000    -4.797000000
H     1.434000000    -0.132000000    -5.571000000
C     3.169000000     1.244000000    -2.937000000
C     2.470000000     2.423000000    -2.832000000
H     2.759000000     3.219000000    -2.151000000
C     1.413000000     2.675000000    -3.691000000
O     0.577000000     3.772000000    -3.439000000
C    -0.527000000     3.485000000    -2.509000000
C    -0.596000000     4.491000000    -1.365000000
C    -1.832000000     4.972000000    -0.965000000
H    -2.761000000     4.663000000    -1.437000000
C     0.563000000     5.098000000    -0.851000000
H     1.468000000     4.764000000    -1.351000000
O    -1.744000000     3.405000000    -3.251000000
H    -0.320000000     2.500000000    -2.064000000
C     0.956000000     1.661000000    -4.530000000
C    -0.367000000     1.729000000    -5.311000000
H    -0.132000000     1.057000000    -6.139000000
H    -0.561000000     2.722000000    -5.721000000
C    -1.543000000     1.301000000    -4.447000000
C    -1.895000000    -0.029000000    -4.487000000
H    -1.446000000    -0.778000000    -5.134000000
C    -2.218000000     2.141000000    -3.549000000
C    -3.215000000     1.673000000    -2.747000000
H    -3.551000000     2.309000000    -1.932000000
C    -3.702000000     0.401000000    -2.862000000
O    -4.595000000    -0.020000000    -1.888000000
C    -4.077000000    -0.760000000    -0.831000000
C    -4.539000000    -0.294000000     0.525000000
C    -4.776000000     1.102000000     0.827000000
H    -4.711000000     1.824000000     0.016000000
C    -4.745000000    -1.236000000     1.537000000
H    -4.657000000    -2.299000000     1.326000000
O    -4.240000000    -2.176000000    -1.026000000
H    -2.981000000    -0.665000000    -0.814000000
C    -3.002000000    -0.510000000    -3.738000000
C    -3.444000000    -1.941000000    -3.957000000
H    -3.242000000    -2.346000000    -4.951000000
H    -4.521000000    -2.122000000    -3.977000000
C    -2.769000000    -2.844000000    -2.901000000
C    -3.251000000    -2.982000000    -1.519000000
C    -2.563000000    -3.794000000    -0.655000000
H    -2.810000000    -3.750000000     0.402000000
C    -1.363000000    -4.339000000    -1.087000000
O    -0.617000000    -4.833000000    -0.054000000
C     0.579000000    -4.259000000     0.492000000
H     0.533000000    -3.163000000     0.411000000
C     0.623000000    -4.541000000     1.972000000
C     1.835000000    -4.450000000     2.680000000
H     2.743000000    -4.198000000     2.138000000
C    -0.570000000    -4.785000000     2.663000000
H    -1.546000000    -4.746000000     2.186000000
C    -0.580000000    -4.925000000     4.065000000
O    -1.797000000    -5.027000000     4.700000000
C     0.673000000    -4.827000000     4.732000000
H     0.778000000    -4.851000000     5.814000000
C     1.825000000    -4.549000000     4.083000000
O     3.014000000    -4.396000000     4.854000000
C     4.139000000    -3.764000000     4.426000000
C     4.098000000    -2.366000000     4.254000000
H     3.163000000    -1.856000000     4.468000000
C     5.301000000    -4.477000000     4.049000000
H     5.399000000    -5.551000000     4.185000000
C     6.385000000    -3.795000000     3.554000000
H     7.317000000    -4.282000000     3.281000000
C     6.369000000    -2.417000000     3.460000000
H     7.243000000    -1.864000000     3.126000000
C     5.252000000    -1.681000000     3.773000000
O     5.292000000    -0.322000000     3.733000000
C     5.178000000     0.389000000     2.552000000
C     5.380000000     1.724000000     2.726000000
H     5.652000000     2.140000000     3.692000000
C     5.160000000     2.601000000     1.673000000
O     5.335000000     3.961000000     1.823000000
C     4.747000000     4.911000000     1.013000000
C     3.483000000     5.357000000     1.306000000
H     2.917000000     4.890000000     2.108000000
C     5.494000000     5.453000000    -0.037000000
H     6.524000000     5.147000000    -0.203000000
C     4.947000000     6.459000000    -0.855000000
H     5.536000000     6.995000000    -1.594000000
C     3.657000000     6.815000000    -0.640000000
H     3.168000000     7.528000000    -1.299000000
C     2.889000000     6.261000000     0.378000000
O     1.590000000     6.680000000     0.570000000
C     0.459000000     6.105000000     0.112000000
C    -0.781000000     6.486000000     0.587000000
H    -0.862000000     7.210000000     1.394000000
C    -1.904000000     5.968000000     0.043000000
O    -3.067000000     6.535000000     0.406000000
C    -4.188000000     5.826000000     0.771000000
C    -4.087000000     4.617000000     1.448000000
H    -3.113000000     4.225000000     1.730000000
C    -5.447000000     6.191000000     0.294000000
H    -5.612000000     7.132000000    -0.223000000
C    -6.631000000     5.570000000     0.673000000
H    -7.593000000     6.045000000     0.497000000
C    -6.474000000     4.411000000     1.441000000
H    -7.351000000     3.875000000     1.793000000
C    -5.205000000     3.939000000     1.816000000
O    -5.150000000     2.771000000     2.554000000
C    -4.957000000     1.492000000     2.183000000
C    -5.109000000     0.497000000     3.142000000
H    -5.422000000     0.753000000     4.151000000
C    -5.117000000    -0.867000000     2.834000000
O    -5.398000000    -1.803000000     3.798000000
C    -4.867000000    -3.107000000     3.808000000
C    -5.675000000    -4.123000000     3.464000000
H    -6.729000000    -3.987000000     3.237000000
C    -5.268000000    -5.422000000     3.484000000
H    -6.018000000    -6.183000000     3.282000000
C    -3.937000000    -5.633000000     3.737000000
H    -3.554000000    -6.649000000     3.782000000
C    -3.057000000    -4.644000000     4.187000000
C    -3.532000000    -3.329000000     4.169000000
H    -2.911000000    -2.510000000     4.524000000
C    -1.242000000     0.926000000     2.037000000
H    -2.018000000     0.557000000     2.703000000
C    -1.027000000     0.308000000     0.815000000
H    -1.437000000    -0.670000000     0.576000000
C    -0.002000000     0.774000000    -0.061000000
H     0.249000000     0.232000000    -0.948000000
C     0.750000000     1.873000000     0.288000000
H     1.664000000     2.126000000    -0.244000000
C     0.495000000     2.521000000     1.516000000
H     0.985000000     3.464000000     1.746000000
C    -0.494000000     2.034000000     2.410000000
C    -0.747000000     2.699000000     3.754000000
O    -0.118000000     3.738000000     4.025000000
O    -1.682000000     2.359000000     4.482000000
O    -0.306000000    -1.758000000     3.380000000
H     0.513000000    -1.435000000     3.005000000
H    -0.080000000    -2.612000000     3.749000000
O    -3.956000000     2.140000000     6.333000000
H    -4.044000000     3.017000000     6.705000000
H    -3.305000000     2.239000000     5.637000000
O    -5.463000000     5.601000000     4.772000000
H    -4.661000000     5.136000000     5.011000000
H    -5.731000000     5.205000000     3.942000000
O     1.936000000    -0.771000000     2.341000000
H     1.431000000    -0.002000000     2.079000000
H     2.849000000    -0.510000000     2.221000000
O     3.498000000     3.317000000     6.382000000
H     3.527000000     3.162000000     7.326000000
H     4.324000000     3.760000000     6.187000000
O     2.372000000     2.767000000     3.930000000
H     1.558000000     3.271000000     3.908000000
H     2.744000000     2.950000000     4.792000000
O    -1.734000000     2.484000000     9.206000000
H    -1.116000000     2.131000000     8.567000000
H    -2.592000000     2.378000000     8.794000000
O    -0.239000000     3.835000000     6.590000000
H    -0.288000000     2.901000000     6.794000000
H    -0.361000000     3.881000000     5.642000000
O     2.637000000     0.458000000     5.185000000
H     3.508000000     0.148000000     4.936000000
H     2.462000000     1.185000000     4.587000000
O    -0.119000000     6.305000000     3.765000000
H    -0.040000000     5.355000000     3.852000000
H     0.705000000     6.647000000     4.112000000
O     1.612000000     3.733000000     8.613000000
H     1.027000000     3.989000000     7.900000000
H     1.265000000     4.187000000     9.381000000
O    -1.765000000    -0.284000000     5.140000000
H    -1.393000000    -0.748000000     4.389000000
H    -1.744000000     0.638000000     4.886000000
O     2.325000000    -0.388000000     7.669000000
H     2.326000000    -0.050000000     6.774000000
H     2.832000000    -1.198000000     7.620000000
O    -3.831000000    -0.341000000     7.484000000
H    -3.997000000     0.498000000     7.054000000
H    -3.175000000    -0.768000000     6.933000000
O    -1.578000000     6.090000000     7.753000000
H    -2.152000000     6.282000000     7.013000000
H    -1.064000000     5.334000000     7.468000000
O     2.421000000     6.157000000     4.637000000
H     2.074000000     5.654000000     5.373000000
H     3.333000000     5.875000000     4.563000000
O    -0.551000000     1.046000000     7.186000000
H     0.333000000     0.687000000     7.268000000
H    -0.979000000     0.483000000     6.541000000
O    -2.918000000     4.594000000     4.957000000
H    -2.584000000     3.714000000     4.782000000
H    -2.211000000     5.178000000     4.682000000
O    -3.043000000     7.681000000     3.850000000
H    -3.301000000     7.505000000     4.755000000
H    -2.228000000     7.192000000     3.734000000
