215
-1438.48851
C     4.523000000     1.264000000     0.999000000
H     3.955000000     2.073000000     0.546000000
C     4.762000000     0.026000000     0.314000000
C     5.568000000    -0.940000000     0.962000000
H     5.722000000    -1.868000000     0.417000000
C     4.177000000    -0.229000000    -1.121000000
O     4.387000000     0.878000000    -1.970000000
H     3.093000000    -0.257000000    -0.939000000
O     4.627000000    -1.428000000    -1.853000000
C     3.587000000    -2.205000000    -2.290000000
C     2.958000000    -3.191000000    -1.538000000
H     3.473000000    -3.440000000    -0.614000000
C     1.864000000    -3.923000000    -1.957000000
O     1.175000000    -4.618000000    -1.025000000
C     1.220000000    -3.552000000    -3.167000000
C    -0.098000000    -4.180000000    -3.655000000
H    -0.122000000    -4.209000000    -4.747000000
C    -1.351000000    -3.462000000    -3.063000000
C    -1.984000000    -2.526000000    -3.844000000
H    -1.463000000    -2.124000000    -4.708000000
H    -0.152000000    -5.209000000    -3.295000000
C     1.661000000    -2.406000000    -3.834000000
H     1.241000000    -2.021000000    -4.760000000
C     2.913000000    -1.834000000    -3.464000000
C     3.339000000    -0.649000000    -4.321000000
H     3.058000000    -0.765000000    -5.370000000
H     4.426000000    -0.588000000    -4.406000000
C     2.817000000     0.684000000    -3.811000000
C     1.640000000     1.196000000    -4.426000000
H     1.295000000     0.597000000    -5.266000000
C     3.375000000     1.376000000    -2.726000000
C     2.827000000     2.616000000    -2.356000000
H     3.169000000     3.086000000    -1.438000000
C     1.674000000     3.101000000    -2.991000000
O     1.021000000     4.155000000    -2.485000000
C    -0.166000000     3.980000000    -1.676000000
C    -0.176000000     4.978000000    -0.511000000
C    -1.320000000     5.409000000     0.105000000
H    -2.344000000     5.358000000    -0.257000000
C     1.030000000     5.315000000     0.131000000
H     1.975000000     4.942000000    -0.255000000
O    -1.382000000     4.083000000    -2.367000000
H    -0.030000000     2.982000000    -1.233000000
C     1.040000000     2.360000000    -4.016000000
C    -0.139000000     2.858000000    -4.737000000
H     0.029000000     2.512000000    -5.759000000
H    -0.235000000     3.945000000    -4.763000000
C    -1.401000000     2.273000000    -4.038000000
C    -1.968000000     1.039000000    -4.355000000
H    -1.492000000     0.421000000    -5.112000000
C    -1.889000000     2.905000000    -2.878000000
C    -3.014000000     2.366000000    -2.224000000
H    -3.359000000     2.878000000    -1.330000000
C    -3.636000000     1.260000000    -2.674000000
O    -4.691000000     0.828000000    -1.910000000
C    -4.277000000    -0.224000000    -1.075000000
C    -4.850000000    -0.100000000     0.335000000
C    -4.608000000     1.120000000     0.985000000
H    -4.125000000     1.986000000     0.538000000
C    -5.530000000    -1.104000000     0.987000000
H    -5.622000000    -2.088000000     0.536000000
O    -4.632000000    -1.541000000    -1.683000000
H    -3.197000000    -0.198000000    -0.867000000
C    -3.117000000     0.525000000    -3.747000000
C    -3.666000000    -0.732000000    -4.320000000
H    -3.389000000    -0.897000000    -5.363000000
H    -4.757000000    -0.733000000    -4.280000000
C    -3.106000000    -1.815000000    -3.467000000
C    -3.665000000    -2.303000000    -2.294000000
C    -3.066000000    -3.323000000    -1.504000000
H    -3.608000000    -3.752000000    -0.665000000
C    -1.834000000    -3.805000000    -1.850000000
O    -1.160000000    -4.524000000    -0.887000000
C     0.073000000    -3.950000000    -0.371000000
H     0.205000000    -2.897000000    -0.660000000
C     0.231000000    -4.117000000     1.117000000
C     1.397000000    -4.472000000     1.722000000
H     2.253000000    -4.586000000     1.062000000
C    -0.956000000    -4.122000000     1.864000000
H    -1.928000000    -3.924000000     1.420000000
C    -0.931000000    -4.383000000     3.197000000
O    -2.080000000    -4.652000000     3.996000000
C     0.274000000    -4.704000000     3.837000000
H     0.275000000    -4.735000000     4.923000000
C     1.442000000    -4.732000000     3.117000000
O     2.558000000    -4.939000000     3.762000000
C     3.829000000    -4.697000000     3.294000000
C     4.365000000    -3.394000000     3.283000000
H     3.721000000    -2.551000000     3.520000000
C     4.660000000    -5.755000000     2.938000000
H     4.312000000    -6.785000000     2.898000000
C     5.956000000    -5.496000000     2.461000000
H     6.621000000    -6.344000000     2.316000000
C     6.470000000    -4.183000000     2.406000000
H     7.459000000    -4.024000000     1.983000000
C     5.712000000    -3.125000000     2.889000000
O     6.289000000    -1.899000000     2.977000000
C     5.819000000    -0.781000000     2.312000000
C     5.428000000     0.341000000     2.969000000
H     5.619000000     0.414000000     4.037000000
C     4.963000000     1.451000000     2.325000000
O     4.823000000     2.653000000     2.935000000
C     4.729000000     3.836000000     2.256000000
C     3.563000000     4.589000000     2.417000000
H     2.752000000     4.273000000     3.068000000
C     5.711000000     4.305000000     1.401000000
H     6.674000000     3.799000000     1.385000000
C     5.583000000     5.482000000     0.680000000
H     6.323000000     5.841000000    -0.031000000
C     4.539000000     6.334000000     0.951000000
H     4.461000000     7.324000000     0.510000000
C     3.427000000     5.825000000     1.691000000
O     2.274000000     6.540000000     1.855000000
C     1.071000000     6.089000000     1.262000000
C    -0.114000000     6.432000000     1.869000000
H    -0.008000000     7.065000000     2.746000000
C    -1.310000000     6.076000000     1.372000000
O    -2.492000000     6.577000000     1.816000000
C    -3.601000000     5.731000000     1.940000000
C    -3.468000000     4.469000000     2.516000000
H    -2.481000000     4.164000000     2.854000000
C    -4.807000000     6.244000000     1.535000000
H    -4.840000000     7.190000000     1.000000000
C    -5.993000000     5.477000000     1.658000000
H    -6.999000000     5.829000000     1.443000000
C    -5.799000000     4.174000000     2.100000000
H    -6.685000000     3.547000000     2.143000000
C    -4.567000000     3.663000000     2.470000000
O    -4.469000000     2.426000000     2.957000000
C    -4.811000000     1.210000000     2.348000000
C    -5.294000000     0.162000000     3.061000000
H    -5.414000000     0.201000000     4.141000000
C    -5.695000000    -1.003000000     2.374000000
O    -6.165000000    -2.086000000     3.062000000
C    -5.449000000    -3.284000000     3.241000000
C    -6.019000000    -4.352000000     2.586000000
H    -6.888000000    -4.094000000     1.985000000
C    -5.303000000    -5.502000000     2.426000000
H    -5.712000000    -6.436000000     2.049000000
C    -3.992000000    -5.602000000     2.933000000
H    -3.372000000    -6.485000000     2.804000000
C    -3.404000000    -4.519000000     3.575000000
C    -4.150000000    -3.325000000     3.650000000
H    -3.696000000    -2.449000000     4.108000000
C    -1.634000000     0.527000000     3.052000000
H    -2.230000000     0.461000000     3.959000000
C    -1.793000000    -0.536000000     2.264000000
H    -2.619000000    -1.234000000     2.367000000
C    -1.118000000    -0.579000000     1.057000000
H    -1.334000000    -1.383000000     0.403000000
C    -0.102000000     0.372000000     0.804000000
H     0.551000000     0.256000000    -0.057000000
C     0.130000000     1.392000000     1.733000000
H     0.955000000     2.080000000     1.569000000
C    -0.652000000     1.506000000     2.862000000
C    -0.486000000     2.593000000     3.916000000
O     0.588000000     3.193000000     4.064000000
O    -1.315000000     2.658000000     4.799000000
O    -6.294000000     3.013000000     6.434000000
H    -5.351000000     2.924000000     6.292000000
H    -6.515000000     2.298000000     7.031000000
O     0.343000000    -2.389000000     5.928000000
H     0.592000000    -2.392000000     5.003000000
H     0.814000000    -3.132000000     6.305000000
O    -5.422000000     6.037000000     5.736000000
H    -4.625000000     5.514000000     5.824000000
H    -6.104000000     5.400000000     5.523000000
O    -3.512000000     2.370000000     6.207000000
H    -2.769000000     2.299000000     5.608000000
H    -3.414000000     1.625000000     6.800000000
O     0.926000000    -1.393000000     3.466000000
H     0.941000000    -0.558000000     3.933000000
H     0.379000000    -1.228000000     2.697000000
O     2.742000000     1.822000000     4.832000000
H     2.160000000     2.380000000     4.317000000
H     3.621000000     2.042000000     4.523000000
O    -2.750000000     0.254000000     8.269000000
H    -3.223000000    -0.309000000     8.882000000
H    -1.960000000     0.513000000     8.744000000
O     0.547000000     2.707000000     6.913000000
H    -0.189000000     2.683000000     6.302000000
H     1.321000000     2.765000000     6.353000000
O     3.268000000     0.568000000     7.217000000
H     3.978000000     1.147000000     7.494000000
H     2.981000000     0.926000000     6.377000000
O     4.521000000     3.852000000     7.516000000
H     3.666000000     3.983000000     7.924000000
H     4.918000000     4.724000000     7.506000000
O    -1.311000000     8.094000000     6.057000000
H    -0.768000000     7.370000000     5.747000000
H    -1.823000000     7.720000000     6.774000000
O     0.563000000     5.580000000     5.514000000
H     0.762000000     4.794000000     5.006000000
H     1.395000000     5.816000000     5.926000000
O    -2.166000000    -1.643000000     6.318000000
H    -1.247000000    -1.822000000     6.118000000
H    -2.210000000    -0.691000000     6.408000000
O    -0.093000000     1.245000000     9.396000000
H    -0.450000000     1.957000000     8.865000000
H     0.313000000     0.653000000     8.762000000
O    -4.846000000    -1.489000000     6.261000000
H    -4.927000000    -2.440000000     6.182000000
H    -3.922000000    -1.343000000     6.465000000
O    -1.147000000     4.060000000     8.381000000
H    -0.349000000     3.581000000     8.158000000
H    -1.127000000     4.834000000     7.819000000
O     2.862000000     7.060000000     6.046000000
H     3.614000000     6.790000000     5.518000000
H     2.525000000     7.838000000     5.602000000
O     1.050000000    -0.554000000     7.766000000
H     1.877000000    -0.144000000     7.515000000
H     0.865000000    -1.173000000     7.060000000
O    -2.626000000     5.159000000     6.020000000
H    -1.954000000     5.124000000     5.340000000
H    -2.618000000     4.285000000     6.411000000
