215
-1460.23274
C     4.238000000     1.280000000    -0.481000000
H     3.582000000     1.846000000    -1.138000000
C     4.340000000    -0.080000000    -0.716000000
C     5.245000000    -0.743000000     0.159000000
H     5.379000000    -1.810000000    -0.002000000
C     3.551000000    -0.736000000    -1.853000000
O     3.567000000     0.069000000    -3.039000000
H     2.540000000    -0.817000000    -1.427000000
O     4.006000000    -2.073000000    -2.168000000
C     3.011000000    -3.027000000    -2.278000000
C     2.794000000    -3.821000000    -1.160000000
H     3.552000000    -3.870000000    -0.383000000
C     1.615000000    -4.529000000    -1.023000000
O     1.372000000    -5.087000000     0.220000000
C     0.622000000    -4.502000000    -2.020000000
C    -0.656000000    -5.222000000    -1.749000000
H    -0.985000000    -5.755000000    -2.644000000
C    -1.741000000    -4.219000000    -1.213000000
C    -2.666000000    -3.565000000    -2.067000000
H    -2.759000000    -3.806000000    -3.123000000
H    -0.426000000    -6.038000000    -1.061000000
C     0.868000000    -3.730000000    -3.150000000
H     0.197000000    -3.587000000    -3.993000000
C     2.010000000    -2.990000000    -3.266000000
C     2.259000000    -2.144000000    -4.558000000
H     1.819000000    -2.623000000    -5.436000000
H     3.297000000    -2.081000000    -4.889000000
C     1.719000000    -0.774000000    -4.395000000
C     0.395000000    -0.551000000    -4.776000000
H    -0.082000000    -1.323000000    -5.374000000
C     2.420000000     0.222000000    -3.747000000
C     1.894000000     1.557000000    -3.776000000
H     2.485000000     2.288000000    -3.231000000
C     0.557000000     1.823000000    -4.189000000
O     0.059000000     3.132000000    -4.080000000
C    -0.957000000     3.232000000    -3.019000000
C    -0.744000000     4.432000000    -2.187000000
C    -1.693000000     4.833000000    -1.214000000
H    -2.584000000     4.223000000    -1.088000000
C     0.515000000     5.011000000    -2.150000000
H     1.275000000     4.647000000    -2.837000000
O    -2.235000000     3.149000000    -3.583000000
H    -0.977000000     2.313000000    -2.415000000
C    -0.195000000     0.711000000    -4.671000000
C    -1.548000000     0.925000000    -5.319000000
H    -1.728000000     0.194000000    -6.110000000
H    -1.568000000     1.900000000    -5.811000000
C    -2.688000000     0.821000000    -4.271000000
C    -3.290000000    -0.391000000    -3.939000000
H    -3.015000000    -1.187000000    -4.626000000
C    -2.905000000     1.965000000    -3.404000000
C    -3.779000000     1.850000000    -2.297000000
H    -4.086000000     2.649000000    -1.626000000
C    -4.247000000     0.586000000    -1.975000000
O    -4.811000000     0.409000000    -0.775000000
C    -4.009000000    -0.157000000     0.266000000
C    -4.209000000     0.504000000     1.604000000
C    -4.721000000     1.835000000     1.713000000
H    -5.064000000     2.382000000     0.838000000
C    -3.750000000    -0.058000000     2.774000000
H    -3.264000000    -1.019000000     2.627000000
O    -4.417000000    -1.529000000     0.400000000
H    -2.976000000    -0.160000000    -0.112000000
C    -4.016000000    -0.547000000    -2.801000000
C    -4.526000000    -1.917000000    -2.464000000
H    -4.899000000    -2.599000000    -3.230000000
H    -5.476000000    -1.727000000    -1.961000000
C    -3.553000000    -2.608000000    -1.529000000
C    -3.624000000    -2.460000000    -0.157000000
C    -2.759000000    -3.176000000     0.665000000
H    -2.915000000    -3.087000000     1.737000000
C    -1.794000000    -3.996000000     0.099000000
O    -0.922000000    -4.668000000     0.940000000
C     0.454000000    -4.201000000     0.996000000
H     0.443000000    -3.195000000     0.552000000
C     0.970000000    -4.092000000     2.431000000
C     2.344000000    -4.189000000     2.664000000
H     3.148000000    -4.342000000     1.949000000
C     0.094000000    -3.975000000     3.467000000
H    -0.981000000    -3.885000000     3.333000000
C     0.498000000    -3.858000000     4.777000000
O    -0.449000000    -3.648000000     5.806000000
C     1.874000000    -3.896000000     5.029000000
H     2.160000000    -3.953000000     6.076000000
C     2.798000000    -4.094000000     3.997000000
O     4.099000000    -4.261000000     4.373000000
C     5.183000000    -3.754000000     3.624000000
C     5.310000000    -2.426000000     3.186000000
H     4.585000000    -1.700000000     3.546000000
C     6.116000000    -4.762000000     3.254000000
H     6.071000000    -5.791000000     3.601000000
C     7.225000000    -4.407000000     2.481000000
H     7.927000000    -5.190000000     2.206000000
C     7.412000000    -3.074000000     2.182000000
H     8.312000000    -2.734000000     1.678000000
C     6.499000000    -2.060000000     2.601000000
O     6.653000000    -0.754000000     2.160000000
C     5.837000000    -0.104000000     1.214000000
C     5.640000000     1.249000000     1.374000000
H     6.221000000     1.766000000     2.133000000
C     4.942000000     2.010000000     0.466000000
O     4.787000000     3.376000000     0.684000000
C     4.566000000     4.278000000    -0.350000000
C     3.389000000     4.954000000    -0.300000000
H     2.631000000     4.812000000     0.466000000
C     5.530000000     4.375000000    -1.380000000
H     6.424000000     3.758000000    -1.389000000
C     5.290000000     5.368000000    -2.370000000
H     5.929000000     5.559000000    -3.229000000
C     4.100000000     6.049000000    -2.292000000
H     3.809000000     6.782000000    -3.040000000
C     3.125000000     5.880000000    -1.294000000
O     2.030000000     6.656000000    -1.292000000
C     0.814000000     6.041000000    -1.271000000
C    -0.184000000     6.588000000    -0.476000000
H     0.122000000     7.384000000     0.199000000
C    -1.417000000     5.910000000    -0.357000000
O    -2.338000000     6.444000000     0.507000000
C    -3.653000000     5.999000000     0.681000000
C    -3.914000000     4.957000000     1.599000000
H    -3.086000000     4.415000000     2.048000000
C    -4.751000000     6.683000000     0.151000000
H    -4.611000000     7.458000000    -0.598000000
C    -6.078000000     6.318000000     0.415000000
H    -6.863000000     6.755000000    -0.196000000
C    -6.322000000     5.368000000     1.389000000
H    -7.350000000     5.101000000     1.620000000
C    -5.228000000     4.732000000     2.086000000
O    -5.527000000     3.773000000     3.011000000
C    -4.968000000     2.459000000     2.935000000
C    -4.611000000     1.761000000     4.105000000
H    -4.771000000     2.232000000     5.071000000
C    -4.000000000     0.506000000     3.990000000
O    -3.668000000    -0.077000000     5.109000000
C    -3.399000000    -1.396000000     5.242000000
C    -4.407000000    -2.365000000     5.056000000
H    -5.409000000    -1.997000000     4.851000000
C    -4.039000000    -3.765000000     5.079000000
H    -4.834000000    -4.497000000     4.967000000
C    -2.737000000    -4.162000000     5.246000000
H    -2.510000000    -5.225000000     5.228000000
C    -1.744000000    -3.170000000     5.560000000
C    -2.074000000    -1.775000000     5.512000000
H    -1.343000000    -1.011000000     5.764000000
C    -0.389000000     0.235000000     2.094000000
H    -0.621000000    -0.401000000     2.944000000
C    -0.306000000    -0.364000000     0.875000000
H    -0.475000000    -1.414000000     0.647000000
C     0.029000000     0.467000000    -0.206000000
H    -0.024000000     0.136000000    -1.253000000
C     0.405000000     1.820000000    -0.025000000
H     0.788000000     2.419000000    -0.846000000
C     0.190000000     2.442000000     1.191000000
H     0.295000000     3.519000000     1.301000000
C    -0.156000000     1.641000000     2.316000000
C    -0.309000000     2.341000000     3.682000000
O     0.013000000     3.515000000     3.867000000
O    -0.440000000     1.745000000     4.741000000
O    -1.697000000     1.150000000     7.021000000
H    -1.118000000     1.274000000     6.268000000
H    -2.132000000     1.996000000     7.129000000
O    -4.609000000     6.253000000     5.612000000
H    -4.098000000     5.784000000     4.953000000
H    -4.547000000     5.707000000     6.396000000
O     1.012000000     3.724000000     6.402000000
H     0.624000000     3.815000000     5.532000000
H     1.266000000     2.803000000     6.456000000
O    -4.791000000     4.031000000     7.843000000
H    -3.845000000     4.160000000     7.769000000
H    -4.973000000     4.129000000     8.777000000
O    -2.098000000     4.148000000     7.322000000
H    -2.241000000     4.556000000     6.468000000
H    -1.158000000     3.968000000     7.347000000
O     2.673000000    -0.081000000     2.710000000
H     2.085000000     0.279000000     2.046000000
H     3.466000000     0.451000000     2.641000000
O    -1.555000000     7.190000000     6.853000000
H    -1.918000000     6.622000000     6.173000000
H    -1.875000000     8.064000000     6.631000000
O     4.657000000     1.329000000     4.266000000
H     4.112000000     1.489000000     5.037000000
H     5.434000000     0.889000000     4.609000000
O     2.204000000     8.072000000     2.228000000
H     2.378000000     7.196000000     2.573000000
H     2.668000000     8.097000000     1.391000000
O     1.767000000     5.458000000     3.690000000
H     1.216000000     4.737000000     3.995000000
H     1.242000000     6.243000000     3.847000000
O     4.457000000     4.094000000     4.146000000
H     4.732000000     3.189000000     4.298000000
H     3.525000000     4.029000000     3.939000000
O     1.257000000    -0.195000000     5.122000000
H     1.721000000    -0.259000000     4.288000000
H     0.557000000     0.438000000     4.958000000
O    -0.816000000     1.588000000     9.960000000
H    -0.762000000     1.638000000     9.006000000
H    -1.736000000     1.765000000    10.157000000
O     2.447000000     4.942000000     8.759000000
H     1.990000000     4.255000000     8.274000000
H     1.748000000     5.477000000     9.135000000
O     3.020000000     1.789000000     6.871000000
H     2.551000000     0.958000000     6.939000000
H     3.558000000     1.826000000     7.662000000
O     1.789000000    -0.734000000     7.613000000
H     1.509000000    -0.829000000     6.703000000
H     0.979000000    -0.581000000     8.098000000
O    -1.869000000     5.359000000     4.710000000
H    -1.271000000     4.737000000     4.296000000
H    -1.827000000     6.137000000     4.155000000
O     0.065000000     7.701000000     4.343000000
H     0.423000000     8.537000000     4.045000000
H    -0.874000000     7.766000000     4.166000000
O    -3.885000000    -0.519000000     8.329000000
H    -3.464000000    -0.275000000     7.505000000
H    -4.547000000     0.158000000     8.470000000
