215
-1457.62980
C     4.692000000     2.093000000    -1.320000000
H     4.217000000     2.667000000    -2.112000000
C     4.554000000     0.776000000    -1.195000000
C     4.950000000     0.109000000    -0.099000000
H     4.752000000    -0.957000000    -0.038000000
C     3.594000000     0.107000000    -2.265000000
O     3.416000000     0.958000000    -3.466000000
H     2.604000000    -0.058000000    -1.814000000
O     4.099000000    -1.299000000    -2.505000000
C     3.150000000    -2.255000000    -2.617000000
C     2.966000000    -3.187000000    -1.564000000
H     3.539000000    -3.050000000    -0.650000000
C     1.989000000    -4.181000000    -1.598000000
O     1.772000000    -4.808000000    -0.401000000
C     1.092000000    -4.244000000    -2.646000000
C    -0.210000000    -5.103000000    -2.616000000
H    -0.639000000    -5.203000000    -3.615000000
C    -1.319000000    -4.418000000    -1.789000000
C    -2.229000000    -3.611000000    -2.445000000
H    -2.088000000    -3.496000000    -3.517000000
H     0.116000000    -6.103000000    -2.319000000
C     1.220000000    -3.250000000    -3.600000000
H     0.441000000    -3.225000000    -4.358000000
C     2.272000000    -2.342000000    -3.703000000
C     2.301000000    -1.327000000    -4.866000000
H     1.886000000    -1.773000000    -5.773000000
H     3.330000000    -1.145000000    -5.181000000
C     1.565000000    -0.062000000    -4.518000000
C     0.185000000     0.062000000    -4.834000000
H    -0.341000000    -0.726000000    -5.367000000
C     2.152000000     1.087000000    -3.918000000
C     1.415000000     2.274000000    -3.640000000
H     1.882000000     3.147000000    -3.191000000
C     0.084000000     2.311000000    -3.938000000
O    -0.603000000     3.427000000    -3.455000000
C    -1.297000000     3.244000000    -2.200000000
C    -1.193000000     4.474000000    -1.338000000
C    -2.236000000     5.029000000    -0.611000000
H    -3.228000000     4.590000000    -0.686000000
C     0.096000000     4.980000000    -1.068000000
H     0.979000000     4.611000000    -1.583000000
O    -2.713000000     2.953000000    -2.487000000
H    -0.829000000     2.458000000    -1.589000000
C    -0.582000000     1.245000000    -4.549000000
C    -2.089000000     1.382000000    -4.919000000
H    -2.215000000     0.756000000    -5.805000000
H    -2.380000000     2.400000000    -5.185000000
C    -3.010000000     0.907000000    -3.821000000
C    -3.451000000    -0.400000000    -3.853000000
H    -3.179000000    -1.099000000    -4.640000000
C    -3.188000000     1.678000000    -2.586000000
C    -4.112000000     1.249000000    -1.608000000
H    -4.388000000     1.860000000    -0.752000000
C    -4.515000000    -0.022000000    -1.666000000
O    -5.152000000    -0.439000000    -0.589000000
C    -4.220000000    -1.149000000     0.380000000
C    -4.304000000    -0.505000000     1.809000000
C    -4.222000000     0.841000000     1.980000000
H    -4.175000000     1.523000000     1.136000000
C    -4.279000000    -1.375000000     2.954000000
H    -4.293000000    -2.450000000     2.797000000
O    -4.412000000    -2.622000000     0.299000000
H    -3.178000000    -0.984000000     0.066000000
C    -4.158000000    -0.837000000    -2.736000000
C    -4.353000000    -2.314000000    -2.609000000
H    -4.414000000    -2.681000000    -3.636000000
H    -5.343000000    -2.415000000    -2.160000000
C    -3.293000000    -3.038000000    -1.809000000
C    -3.496000000    -3.274000000    -0.411000000
C    -2.511000000    -3.998000000     0.310000000
H    -2.618000000    -4.204000000     1.372000000
C    -1.371000000    -4.461000000    -0.363000000
O    -0.378000000    -5.147000000     0.338000000
C     0.772000000    -4.356000000     0.525000000
H     0.623000000    -3.308000000     0.226000000
C     1.263000000    -4.351000000     1.993000000
C     2.638000000    -4.214000000     2.223000000
H     3.342000000    -4.339000000     1.404000000
C     0.431000000    -4.208000000     3.131000000
H    -0.626000000    -3.994000000     3.001000000
C     0.945000000    -3.881000000     4.440000000
O     0.114000000    -3.502000000     5.452000000
C     2.353000000    -3.812000000     4.623000000
H     2.789000000    -3.600000000     5.596000000
C     3.122000000    -4.115000000     3.521000000
O     4.476000000    -4.066000000     3.746000000
C     5.370000000    -3.340000000     2.974000000
C     5.325000000    -1.959000000     2.886000000
H     4.536000000    -1.452000000     3.435000000
C     6.434000000    -4.037000000     2.417000000
H     6.440000000    -5.117000000     2.546000000
C     7.413000000    -3.371000000     1.735000000
H     8.298000000    -3.893000000     1.380000000
C     7.368000000    -1.966000000     1.484000000
H     8.138000000    -1.404000000     0.961000000
C     6.273000000    -1.277000000     2.080000000
O     6.157000000     0.080000000     1.970000000
C     5.668000000     0.760000000     0.881000000
C     5.863000000     2.147000000     0.760000000
H     6.456000000     2.704000000     1.481000000
C     5.365000000     2.798000000    -0.343000000
O     5.570000000     4.161000000    -0.533000000
C     4.694000000     5.092000000    -0.915000000
C     3.593000000     5.336000000    -0.039000000
H     3.322000000     4.729000000     0.821000000
C     4.902000000     5.687000000    -2.140000000
H     5.719000000     5.337000000    -2.765000000
C     4.070000000     6.710000000    -2.473000000
H     4.165000000     7.274000000    -3.397000000
C     3.018000000     7.071000000    -1.651000000
H     2.352000000     7.863000000    -1.984000000
C     2.747000000     6.322000000    -0.468000000
O     1.534000000     6.471000000     0.178000000
C     0.267000000     5.989000000    -0.090000000
C    -0.785000000     6.574000000     0.614000000
H    -0.622000000     7.424000000     1.271000000
C    -2.030000000     6.056000000     0.366000000
O    -3.146000000     6.613000000     0.938000000
C    -4.085000000     5.673000000     1.417000000
C    -3.632000000     4.638000000     2.260000000
H    -2.621000000     4.613000000     2.658000000
C    -5.387000000     5.798000000     0.977000000
H    -5.748000000     6.595000000     0.332000000
C    -6.265000000     4.832000000     1.463000000
H    -7.318000000     4.924000000     1.209000000
C    -5.854000000     3.782000000     2.240000000
H    -6.536000000     3.013000000     2.594000000
C    -4.554000000     3.744000000     2.625000000
O    -4.190000000     2.710000000     3.491000000
C    -4.328000000     1.371000000     3.263000000
C    -4.373000000     0.528000000     4.400000000
H    -4.358000000     0.920000000     5.414000000
C    -4.431000000    -0.822000000     4.226000000
O    -4.306000000    -1.575000000     5.341000000
C    -3.501000000    -2.684000000     5.478000000
C    -4.081000000    -3.952000000     5.439000000
H    -5.160000000    -4.061000000     5.365000000
C    -3.277000000    -5.079000000     5.522000000
H    -3.712000000    -6.072000000     5.443000000
C    -1.888000000    -4.900000000     5.446000000
H    -1.279000000    -5.790000000     5.305000000
C    -1.261000000    -3.644000000     5.490000000
C    -2.096000000    -2.561000000     5.537000000
H    -1.593000000    -1.599000000     5.593000000
C    -0.878000000    -0.286000000     2.252000000
H    -1.195000000    -0.628000000     3.234000000
C    -0.708000000    -1.150000000     1.173000000
H    -0.837000000    -2.223000000     1.290000000
C    -0.158000000    -0.728000000    -0.037000000
H    -0.079000000    -1.443000000    -0.918000000
C     0.278000000     0.537000000    -0.137000000
H     0.639000000     0.893000000    -1.098000000
C     0.166000000     1.411000000     0.908000000
H     0.542000000     2.430000000     0.877000000
C    -0.322000000     0.981000000     2.151000000
C    -0.337000000     1.910000000     3.364000000
O     0.322000000     2.928000000     3.406000000
O    -0.986000000     1.554000000     4.312000000
O    -2.320000000     0.712000000     7.447000000
H    -2.140000000     0.596000000     6.514000000
H    -3.145000000     1.197000000     7.473000000
O    -0.176000000     1.275000000     8.988000000
H     0.541000000     1.693000000     8.510000000
H    -0.794000000     1.009000000     8.307000000
O     3.251000000     5.715000000     5.506000000
H     3.911000000     5.613000000     4.821000000
H     2.436000000     5.422000000     5.099000000
O    -4.036000000     5.362000000     6.169000000
H    -3.445000000     4.613000000     6.087000000
H    -4.463000000     5.238000000     7.017000000
O     0.697000000     3.324000000     6.289000000
H     0.405000000     2.985000000     5.444000000
H     1.301000000     2.658000000     6.619000000
O    -0.212000000     7.286000000     5.437000000
H    -0.646000000     6.838000000     6.162000000
H     0.277000000     6.597000000     4.988000000
O    -1.949000000     4.109000000     8.352000000
H    -2.580000000     4.828000000     8.368000000
H    -1.966000000     3.795000000     7.448000000
O     2.420000000    -0.195000000     3.640000000
H     2.060000000    -0.498000000     2.806000000
H     2.709000000     0.700000000     3.465000000
O     2.088000000     1.129000000     7.544000000
H     2.720000000     0.422000000     7.672000000
H     1.485000000     0.795000000     6.880000000
O     3.764000000     1.756000000     5.284000000
H     3.873000000     0.934000000     5.761000000
H     3.711000000     2.424000000     5.967000000
O     4.451000000     5.067000000     3.101000000
H     5.014000000     5.450000000     2.429000000
H     4.170000000     4.230000000     2.730000000
O     1.053000000     5.632000000     3.802000000
H     0.509000000     4.866000000     3.618000000
H     1.449000000     5.853000000     2.959000000
O     0.658000000    -1.356000000     8.175000000
H     0.713000000    -1.054000000     7.268000000
H     0.155000000    -0.676000000     8.623000000
O     2.808000000     2.971000000     3.062000000
H     3.089000000     2.877000000     3.972000000
H     1.853000000     2.924000000     3.100000000
O     0.499000000    -0.214000000     5.768000000
H     0.012000000     0.397000000     5.214000000
H     1.139000000    -0.613000000     5.179000000
O     0.348000000     5.442000000     7.955000000
H     0.306000000     4.708000000     7.342000000
H    -0.338000000     5.259000000     8.597000000
O     4.295000000     3.745000000     7.275000000
H     5.238000000     3.913000000     7.274000000
H     3.928000000     4.436000000     6.724000000
O     4.289000000    -0.636000000     7.010000000
H     4.882000000    -0.846000000     6.289000000
H     4.804000000    -0.806000000     7.800000000
O    -2.432000000     3.390000000     5.668000000
H    -1.652000000     3.038000000     5.241000000
H    -3.131000000     3.274000000     5.025000000
