215
-1433.35787
C     4.511000000     2.299000000    -0.419000000
H     3.858000000     2.764000000    -1.153000000
C     4.512000000     0.852000000    -0.415000000
C     5.208000000     0.217000000     0.664000000
H     5.371000000    -0.858000000     0.657000000
C     3.725000000     0.172000000    -1.571000000
O     3.876000000     0.784000000    -2.964000000
H     2.649000000     0.167000000    -1.343000000
O     4.197000000    -1.185000000    -1.623000000
C     3.303000000    -2.214000000    -1.796000000
C     3.090000000    -2.944000000    -0.588000000
H     3.733000000    -2.703000000     0.254000000
C     2.174000000    -4.007000000    -0.653000000
O     1.903000000    -4.608000000     0.574000000
C     1.452000000    -4.216000000    -1.815000000
C     0.301000000    -5.206000000    -1.807000000
H     0.007000000    -5.709000000    -2.730000000
C    -0.949000000    -4.591000000    -1.288000000
C    -1.733000000    -3.980000000    -2.177000000
H    -1.502000000    -4.046000000    -3.236000000
H     0.565000000    -5.974000000    -1.077000000
C     1.677000000    -3.472000000    -2.963000000
H     1.172000000    -3.667000000    -3.905000000
C     2.650000000    -2.406000000    -3.015000000
C     2.899000000    -1.656000000    -4.309000000
H     2.692000000    -2.294000000    -5.171000000
H     3.940000000    -1.369000000    -4.475000000
C     2.190000000    -0.356000000    -4.331000000
C     0.988000000    -0.236000000    -4.939000000
H     0.567000000    -1.083000000    -5.475000000
C     2.731000000     0.811000000    -3.712000000
C     2.041000000     2.046000000    -3.784000000
H     2.457000000     2.841000000    -3.170000000
C     0.729000000     2.100000000    -4.337000000
O    -0.079000000     3.266000000    -4.044000000
C    -1.107000000     3.128000000    -3.002000000
C    -0.984000000     4.289000000    -2.106000000
C    -2.133000000     4.752000000    -1.461000000
H    -3.071000000     4.203000000    -1.453000000
C     0.208000000     5.007000000    -1.934000000
H     1.045000000     4.681000000    -2.546000000
O    -2.445000000     2.890000000    -3.509000000
H    -0.815000000     2.240000000    -2.422000000
C     0.209000000     0.955000000    -4.879000000
C    -1.251000000     0.944000000    -5.361000000
H    -1.330000000     0.139000000    -6.095000000
H    -1.462000000     1.875000000    -5.892000000
C    -2.335000000     0.630000000    -4.301000000
C    -2.672000000    -0.689000000    -4.140000000
H    -2.214000000    -1.415000000    -4.809000000
C    -2.883000000     1.584000000    -3.442000000
C    -3.669000000     1.206000000    -2.385000000
H    -4.018000000     2.053000000    -1.801000000
C    -3.985000000    -0.121000000    -2.204000000
O    -4.850000000    -0.465000000    -1.218000000
C    -4.215000000    -1.207000000    -0.107000000
C    -4.607000000    -0.648000000     1.241000000
C    -4.751000000     0.730000000     1.365000000
H    -4.732000000     1.446000000     0.547000000
C    -4.716000000    -1.433000000     2.366000000
H    -4.725000000    -2.518000000     2.305000000
O    -4.407000000    -2.718000000    -0.079000000
H    -3.152000000    -0.927000000    -0.061000000
C    -3.467000000    -1.113000000    -3.047000000
C    -3.701000000    -2.578000000    -2.834000000
H    -3.659000000    -3.111000000    -3.786000000
H    -4.736000000    -2.570000000    -2.487000000
C    -2.910000000    -3.335000000    -1.780000000
C    -3.280000000    -3.431000000    -0.447000000
C    -2.500000000    -4.015000000     0.518000000
H    -2.774000000    -4.014000000     1.569000000
C    -1.327000000    -4.611000000     0.043000000
O    -0.463000000    -5.037000000     1.041000000
C     0.666000000    -4.243000000     1.312000000
H     0.358000000    -3.234000000     1.000000000
C     0.978000000    -4.057000000     2.751000000
C     2.266000000    -3.594000000     3.139000000
H     3.039000000    -3.585000000     2.375000000
C    -0.034000000    -3.986000000     3.712000000
H    -1.051000000    -4.322000000     3.522000000
C     0.226000000    -3.582000000     5.017000000
O    -0.691000000    -3.424000000     5.963000000
C     1.476000000    -3.236000000     5.350000000
H     1.658000000    -2.867000000     6.356000000
C     2.546000000    -3.262000000     4.449000000
O     3.818000000    -2.925000000     4.814000000
C     4.777000000    -2.583000000     3.964000000
C     5.051000000    -1.254000000     3.746000000
H     4.411000000    -0.404000000     3.967000000
C     5.639000000    -3.534000000     3.439000000
H     5.211000000    -4.529000000     3.529000000
C     6.785000000    -3.168000000     2.687000000
H     7.428000000    -3.942000000     2.275000000
C     7.145000000    -1.822000000     2.558000000
H     7.999000000    -1.457000000     1.993000000
C     6.221000000    -0.849000000     3.088000000
O     6.269000000     0.440000000     2.707000000
C     5.742000000     1.026000000     1.621000000
C     5.750000000     2.461000000     1.571000000
H     6.216000000     3.014000000     2.383000000
C     5.188000000     3.096000000     0.534000000
O     5.056000000     4.430000000     0.521000000
C     4.480000000     5.115000000    -0.531000000
C     3.234000000     5.616000000    -0.364000000
H     2.696000000     5.493000000     0.572000000
C     5.278000000     5.509000000    -1.587000000
H     6.289000000     5.132000000    -1.716000000
C     4.799000000     6.400000000    -2.518000000
H     5.379000000     6.762000000    -3.364000000
C     3.430000000     6.835000000    -2.427000000
H     2.956000000     7.455000000    -3.183000000
C     2.650000000     6.395000000    -1.406000000
O     1.362000000     6.951000000    -1.103000000
C     0.197000000     6.195000000    -1.198000000
C    -0.903000000     6.604000000    -0.523000000
H    -0.969000000     7.518000000     0.061000000
C    -2.114000000     5.860000000    -0.608000000
O    -3.233000000     6.303000000     0.058000000
C    -4.253000000     5.469000000     0.485000000
C    -4.045000000     4.597000000     1.548000000
H    -3.155000000     4.584000000     2.172000000
C    -5.359000000     5.359000000    -0.344000000
H    -5.455000000     5.924000000    -1.267000000
C    -6.388000000     4.422000000    -0.097000000
H    -7.270000000     4.356000000    -0.728000000
C    -6.186000000     3.549000000     0.933000000
H    -6.927000000     2.771000000     1.102000000
C    -5.071000000     3.671000000     1.761000000
O    -4.802000000     2.708000000     2.720000000
C    -4.969000000     1.351000000     2.611000000
C    -4.957000000     0.663000000     3.723000000
H    -4.907000000     1.169000000     4.684000000
C    -4.970000000    -0.756000000     3.625000000
O    -4.968000000    -1.524000000     4.765000000
C    -4.125000000    -2.616000000     4.968000000
C    -4.721000000    -3.863000000     4.937000000
H    -5.777000000    -3.972000000     4.703000000
C    -3.937000000    -5.014000000     5.235000000
H    -4.401000000    -5.988000000     5.105000000
C    -2.620000000    -4.838000000     5.578000000
H    -2.063000000    -5.757000000     5.743000000
C    -2.043000000    -3.556000000     5.572000000
C    -2.816000000    -2.461000000     5.320000000
H    -2.570000000    -1.402000000     5.317000000
C    -0.955000000     0.888000000     2.254000000
H    -1.402000000     0.445000000     3.141000000
C    -0.784000000     0.091000000     1.138000000
H    -1.157000000    -0.929000000     1.154000000
C    -0.176000000     0.642000000    -0.039000000
H    -0.148000000     0.124000000    -0.989000000
C     0.191000000     2.023000000    -0.009000000
H     0.625000000     2.438000000    -0.915000000
C     0.070000000     2.741000000     1.154000000
H     0.451000000     3.751000000     1.033000000
C    -0.555000000     2.246000000     2.236000000
C    -0.774000000     3.177000000     3.405000000
O    -0.598000000     4.361000000     3.383000000
O    -1.061000000     2.729000000     4.486000000
O    -2.575000000     1.287000000     5.958000000
H    -2.289000000     2.009000000     5.399000000
H    -1.804000000     0.726000000     6.038000000
O     1.463000000     7.985000000     2.777000000
H     2.342000000     8.358000000     2.709000000
H     1.610000000     7.059000000     2.967000000
O    -1.516000000     8.124000000     6.231000000
H    -1.324000000     7.618000000     5.441000000
H    -1.169000000     7.591000000     6.947000000
O     2.970000000     0.430000000     7.007000000
H     2.672000000     0.857000000     6.204000000
H     3.894000000     0.672000000     7.078000000
O     0.367000000     4.455000000     6.062000000
H    -0.211000000     4.007000000     5.445000000
H     0.497000000     3.824000000     6.770000000
O    -5.590000000     5.693000000     4.453000000
H    -5.151000000     4.925000000     4.817000000
H    -5.114000000     6.438000000     4.820000000
O    -3.406000000     9.244000000     3.249000000
H    -2.789000000     8.516000000     3.174000000
H    -3.935000000     9.030000000     4.017000000
O    -2.364000000     3.942000000     8.300000000
H    -2.429000000     4.474000000     7.507000000
H    -3.144000000     3.388000000     8.282000000
O    -4.725000000     2.622000000     7.799000000
H    -4.153000000     2.048000000     7.291000000
H    -5.361000000     2.950000000     7.164000000
O     2.092000000     0.349000000     2.063000000
H     2.715000000     0.437000000     1.342000000
H     1.237000000     0.501000000     1.661000000
O     3.426000000     3.127000000     3.553000000
H     4.353000000     2.900000000     3.481000000
H     3.072000000     2.492000000     4.176000000
O    -1.062000000     6.857000000     3.635000000
H    -0.958000000     5.907000000     3.587000000
H    -0.405000000     7.201000000     3.031000000
O    -0.309000000     0.057000000     6.701000000
H     0.390000000     0.127000000     6.050000000
H     0.145000000     0.077000000     7.543000000
O     1.863000000     5.245000000     2.897000000
H     2.556000000     4.601000000     3.044000000
H     1.086000000     4.855000000     3.298000000
O     1.603000000     1.025000000     4.581000000
H     0.944000000     1.719000000     4.551000000
H     1.527000000     0.586000000     3.734000000
O     0.213000000     3.214000000     8.358000000
H    -0.009000000     2.449000000     8.889000000
H    -0.606000000     3.703000000     8.288000000
O    -0.065000000     6.414000000     8.083000000
H    -0.131000000     5.669000000     7.487000000
H     0.668000000     6.196000000     8.659000000
O     2.288000000     6.188000000     5.831000000
H     1.516000000     5.632000000     5.932000000
H     3.029000000     5.592000000     5.944000000
O    -2.819000000     4.810000000     5.605000000
H    -2.671000000     5.441000000     4.901000000
H    -2.138000000     4.149000000     5.481000000
