215
-1468.37908
C     4.451000000     2.600000000    -1.028000000
H     3.880000000     3.230000000    -1.706000000
C     4.562000000     1.256000000    -1.160000000
C     5.253000000     0.505000000    -0.202000000
H     5.313000000    -0.570000000    -0.352000000
C     3.729000000     0.550000000    -2.225000000
O     3.485000000     1.379000000    -3.397000000
H     2.771000000     0.317000000    -1.737000000
O     4.254000000    -0.734000000    -2.588000000
C     3.392000000    -1.847000000    -2.488000000
C     3.274000000    -2.535000000    -1.333000000
H     3.729000000    -2.309000000    -0.372000000
C     2.316000000    -3.557000000    -1.306000000
O     2.198000000    -4.353000000    -0.208000000
C     1.522000000    -3.918000000    -2.455000000
C     0.431000000    -5.024000000    -2.376000000
H     0.135000000    -5.375000000    -3.367000000
C    -0.850000000    -4.646000000    -1.543000000
C    -1.822000000    -3.941000000    -2.246000000
H    -1.722000000    -3.832000000    -3.323000000
H     0.975000000    -5.896000000    -2.007000000
C     1.703000000    -3.182000000    -3.634000000
H     1.078000000    -3.457000000    -4.479000000
C     2.573000000    -2.025000000    -3.613000000
C     2.527000000    -1.082000000    -4.804000000
H     2.176000000    -1.668000000    -5.656000000
H     3.543000000    -0.769000000    -5.055000000
C     1.730000000     0.147000000    -4.583000000
C     0.396000000     0.162000000    -5.016000000
H     0.040000000    -0.741000000    -5.505000000
C     2.244000000     1.354000000    -4.013000000
C     1.367000000     2.437000000    -3.845000000
H     1.707000000     3.403000000    -3.480000000
C     0.035000000     2.318000000    -4.026000000
O    -0.746000000     3.301000000    -3.475000000
C    -1.552000000     2.959000000    -2.283000000
C    -1.566000000     4.294000000    -1.480000000
C    -2.803000000     4.737000000    -1.004000000
H    -3.668000000     4.102000000    -1.178000000
C    -0.425000000     5.024000000    -1.283000000
H     0.496000000     4.646000000    -1.718000000
O    -2.886000000     2.605000000    -2.689000000
H    -1.268000000     2.045000000    -1.741000000
C    -0.492000000     1.188000000    -4.687000000
C    -1.981000000     0.977000000    -4.917000000
H    -2.117000000     0.294000000    -5.758000000
H    -2.397000000     1.915000000    -5.290000000
C    -2.805000000     0.506000000    -3.760000000
C    -3.110000000    -0.879000000    -3.672000000
H    -2.750000000    -1.634000000    -4.366000000
C    -3.189000000     1.283000000    -2.699000000
C    -4.038000000     0.880000000    -1.714000000
H    -4.517000000     1.565000000    -1.019000000
C    -4.337000000    -0.457000000    -1.647000000
O    -4.825000000    -0.913000000    -0.478000000
C    -3.918000000    -1.358000000     0.609000000
C    -4.184000000    -0.822000000     1.950000000
C    -4.433000000     0.532000000     1.990000000
H    -4.438000000     1.095000000     1.061000000
C    -4.001000000    -1.554000000     3.163000000
H    -3.596000000    -2.562000000     3.133000000
O    -3.930000000    -2.790000000     0.640000000
H    -2.886000000    -1.120000000     0.311000000
C    -3.785000000    -1.323000000    -2.563000000
C    -4.076000000    -2.749000000    -2.392000000
H    -4.124000000    -3.103000000    -3.424000000
H    -5.084000000    -2.857000000    -1.986000000
C    -2.939000000    -3.414000000    -1.602000000
C    -2.999000000    -3.532000000    -0.184000000
C    -1.998000000    -4.162000000     0.603000000
H    -2.086000000    -4.299000000     1.678000000
C    -0.912000000    -4.777000000    -0.130000000
O     0.141000000    -5.152000000     0.636000000
C     1.157000000    -4.149000000     0.807000000
H     0.739000000    -3.141000000     0.670000000
C     1.672000000    -4.026000000     2.216000000
C     3.039000000    -3.967000000     2.481000000
H     3.790000000    -3.830000000     1.707000000
C     0.753000000    -3.934000000     3.249000000
H    -0.307000000    -4.096000000     3.069000000
C     1.226000000    -3.736000000     4.550000000
O     0.368000000    -3.810000000     5.681000000
C     2.598000000    -3.603000000     4.840000000
H     2.944000000    -3.414000000     5.853000000
C     3.528000000    -3.815000000     3.761000000
O     4.852000000    -3.521000000     4.006000000
C     5.700000000    -2.889000000     3.094000000
C     5.524000000    -1.506000000     2.918000000
H     4.732000000    -0.979000000     3.445000000
C     6.698000000    -3.599000000     2.515000000
H     6.806000000    -4.671000000     2.664000000
C     7.679000000    -2.927000000     1.749000000
H     8.438000000    -3.494000000     1.216000000
C     7.589000000    -1.552000000     1.599000000
H     8.257000000    -1.017000000     0.929000000
C     6.458000000    -0.822000000     2.092000000
O     6.364000000     0.548000000     1.929000000
C     5.707000000     1.183000000     0.948000000
C     5.567000000     2.557000000     1.134000000
H     5.798000000     3.068000000     2.065000000
C     4.974000000     3.271000000     0.094000000
O     4.725000000     4.623000000     0.281000000
C     3.876000000     5.433000000    -0.452000000
C     2.723000000     5.859000000     0.047000000
H     2.257000000     5.585000000     0.989000000
C     4.311000000     5.813000000    -1.759000000
H     5.270000000     5.447000000    -2.114000000
C     3.494000000     6.545000000    -2.609000000
H     3.849000000     6.789000000    -3.607000000
C     2.232000000     6.869000000    -2.135000000
H     1.559000000     7.462000000    -2.749000000
C     1.866000000     6.552000000    -0.804000000
O     0.642000000     6.935000000    -0.280000000
C    -0.467000000     6.205000000    -0.550000000
C    -1.677000000     6.661000000    -0.053000000
H    -1.743000000     7.445000000     0.697000000
C    -2.842000000     5.930000000    -0.272000000
O    -3.987000000     6.316000000     0.414000000
C    -4.853000000     5.316000000     0.808000000
C    -4.492000000     4.375000000     1.781000000
H    -3.594000000     4.439000000     2.390000000
C    -6.019000000     5.087000000     0.113000000
H    -6.210000000     5.741000000    -0.733000000
C    -6.850000000     4.055000000     0.450000000
H    -7.793000000     3.914000000    -0.072000000
C    -6.494000000     3.092000000     1.421000000
H    -7.226000000     2.362000000     1.759000000
C    -5.259000000     3.231000000     2.064000000
O    -4.775000000     2.493000000     3.170000000
C    -4.600000000     1.150000000     3.230000000
C    -4.480000000     0.400000000     4.449000000
H    -4.558000000     0.889000000     5.416000000
C    -4.282000000    -0.947000000     4.394000000
O    -3.951000000    -1.588000000     5.562000000
C    -3.122000000    -2.701000000     5.573000000
C    -3.763000000    -3.937000000     5.489000000
H    -4.849000000    -3.946000000     5.455000000
C    -3.110000000    -5.188000000     5.555000000
H    -3.639000000    -6.137000000     5.526000000
C    -1.724000000    -5.079000000     5.647000000
H    -1.133000000    -5.990000000     5.590000000
C    -1.042000000    -3.870000000     5.624000000
C    -1.758000000    -2.701000000     5.693000000
H    -1.301000000    -1.719000000     5.782000000
C    -1.161000000     0.683000000     2.222000000
H    -1.604000000     0.678000000     3.215000000
C    -0.961000000    -0.433000000     1.410000000
H    -1.358000000    -1.409000000     1.676000000
C    -0.334000000    -0.275000000     0.195000000
H    -0.360000000    -1.117000000    -0.459000000
C     0.243000000     0.930000000    -0.162000000
H     0.678000000     1.003000000    -1.155000000
C     0.020000000     2.026000000     0.644000000
H     0.302000000     3.025000000     0.321000000
C    -0.647000000     1.941000000     1.899000000
C    -0.779000000     3.140000000     2.892000000
O    -0.117000000     4.174000000     2.795000000
O    -1.408000000     2.960000000     3.929000000
O     3.397000000     5.739000000     5.536000000
H     2.557000000     6.194000000     5.483000000
H     3.739000000     5.761000000     4.642000000
O    -2.572000000     5.152000000     4.861000000
H    -2.405000000     5.737000000     4.123000000
H    -2.274000000     4.294000000     4.559000000
O     2.566000000     2.570000000     5.799000000
H     2.955000000     2.576000000     4.925000000
H     2.052000000     3.377000000     5.838000000
O     0.333000000     4.319000000     5.797000000
H    -0.370000000     3.796000000     5.412000000
H     0.660000000     4.852000000     5.072000000
O     0.584000000     0.548000000     4.728000000
H    -0.305000000     0.892000000     4.819000000
H     1.141000000     1.326000000     4.708000000
O    -2.018000000     7.672000000     5.674000000
H    -2.251000000     6.751000000     5.791000000
H    -2.153000000     7.837000000     4.741000000
O     2.069000000     0.023000000     2.421000000
H     1.625000000    -0.274000000     3.215000000
H     1.446000000    -0.155000000     1.717000000
O    -3.103000000     0.723000000     8.532000000
H    -2.575000000    -0.062000000     8.679000000
H    -2.799000000     1.060000000     7.688000000
O    -2.305000000     1.963000000     6.290000000
H    -2.012000000     2.138000000     5.396000000
H    -2.637000000     2.805000000     6.602000000
O     3.537000000     0.415000000     7.088000000
H     3.084000000    -0.321000000     6.677000000
H     3.068000000     1.189000000     6.777000000
O     1.957000000     8.318000000     2.719000000
H     1.981000000     8.855000000     1.927000000
H     2.806000000     8.469000000     3.136000000
O     0.586000000    -1.039000000     7.225000000
H     0.246000000    -1.820000000     6.787000000
H     0.633000000    -0.378000000     6.534000000
O     0.699000000     6.224000000     4.043000000
H     1.084000000     6.890000000     3.473000000
H     0.326000000     5.580000000     3.441000000
O    -3.296000000     7.469000000     3.145000000
H    -3.587000000     7.769000000     2.283000000
H    -4.080000000     7.091000000     3.544000000
O     2.304000000     3.008000000     3.068000000
H     2.285000000     2.146000000     2.652000000
H     1.504000000     3.438000000     2.767000000
O    -3.661000000     3.995000000     7.660000000
H    -2.914000000     4.134000000     8.243000000
H    -3.718000000     4.802000000     7.148000000
O    -0.563000000     3.601000000     8.434000000
H    -0.312000000     2.684000000     8.551000000
H    -0.108000000     3.875000000     7.638000000
O     0.676000000     8.023000000     6.270000000
H     0.366000000     7.364000000     5.649000000
H    -0.010000000     8.066000000     6.937000000
O     4.301000000     5.788000000     3.125000000
H     3.768000000     5.069000000     2.785000000
H     4.864000000     6.036000000     2.392000000
