215
-1435.24649
C     4.297000000     2.399000000    -0.117000000
H     3.648000000     2.929000000    -0.810000000
C     4.557000000     1.050000000    -0.345000000
C     5.286000000     0.456000000     0.633000000
H     5.489000000    -0.606000000     0.517000000
C     3.900000000     0.350000000    -1.574000000
O     3.807000000     1.163000000    -2.827000000
H     2.866000000     0.179000000    -1.240000000
O     4.595000000    -0.943000000    -1.841000000
C     3.699000000    -1.992000000    -1.908000000
C     3.489000000    -2.773000000    -0.836000000
H     3.968000000    -2.500000000     0.101000000
C     2.452000000    -3.700000000    -0.923000000
O     2.023000000    -4.324000000     0.236000000
C     1.703000000    -3.881000000    -2.123000000
C     0.674000000    -5.002000000    -2.153000000
H     0.702000000    -5.222000000    -3.223000000
C    -0.683000000    -4.534000000    -1.649000000
C    -1.596000000    -4.136000000    -2.655000000
H    -1.265000000    -4.221000000    -3.687000000
H     1.090000000    -5.848000000    -1.603000000
C     1.856000000    -3.005000000    -3.195000000
H     1.240000000    -2.991000000    -4.090000000
C     2.953000000    -2.142000000    -3.128000000
C     3.248000000    -1.253000000    -4.342000000
H     3.222000000    -1.934000000    -5.196000000
H     4.261000000    -0.854000000    -4.269000000
C     2.334000000     0.004000000    -4.335000000
C     1.151000000     0.048000000    -5.033000000
H     0.749000000    -0.834000000    -5.525000000
C     2.677000000     1.148000000    -3.613000000
C     1.873000000     2.274000000    -3.604000000
H     2.134000000     3.161000000    -3.032000000
C     0.702000000     2.346000000    -4.378000000
O    -0.139000000     3.446000000    -4.174000000
C    -1.159000000     3.363000000    -3.122000000
C    -1.172000000     4.483000000    -2.087000000
C    -2.222000000     4.660000000    -1.182000000
H    -3.128000000     4.065000000    -1.263000000
C    -0.033000000     5.324000000    -1.862000000
H     0.785000000     5.174000000    -2.563000000
O    -2.462000000     3.023000000    -3.631000000
H    -0.825000000     2.537000000    -2.478000000
C     0.312000000     1.191000000    -5.043000000
C    -1.032000000     1.184000000    -5.645000000
H    -1.042000000     0.507000000    -6.502000000
H    -1.271000000     2.160000000    -6.071000000
C    -2.053000000     0.768000000    -4.537000000
C    -2.256000000    -0.613000000    -4.372000000
H    -1.676000000    -1.331000000    -4.946000000
C    -2.676000000     1.641000000    -3.580000000
C    -3.568000000     1.226000000    -2.617000000
H    -4.078000000     1.796000000    -1.845000000
C    -3.778000000    -0.177000000    -2.514000000
O    -4.568000000    -0.500000000    -1.431000000
C    -4.012000000    -1.279000000    -0.333000000
C    -4.544000000    -0.818000000     0.992000000
C    -5.142000000     0.478000000     1.147000000
H    -5.215000000     1.055000000     0.229000000
C    -4.581000000    -1.686000000     2.106000000
H    -4.128000000    -2.670000000     2.011000000
O    -4.191000000    -2.685000000    -0.421000000
H    -2.931000000    -1.091000000    -0.255000000
C    -3.098000000    -1.120000000    -3.315000000
C    -3.476000000    -2.600000000    -3.301000000
H    -3.317000000    -3.022000000    -4.296000000
H    -4.558000000    -2.706000000    -3.199000000
C    -2.701000000    -3.371000000    -2.243000000
C    -3.056000000    -3.340000000    -0.870000000
C    -2.188000000    -3.910000000     0.092000000
H    -2.370000000    -3.806000000     1.158000000
C    -0.980000000    -4.422000000    -0.328000000
O    -0.204000000    -4.813000000     0.667000000
C     0.853000000    -3.910000000     0.954000000
H     0.581000000    -2.884000000     0.666000000
C     1.050000000    -3.796000000     2.488000000
C     2.226000000    -3.225000000     3.017000000
H     2.892000000    -2.883000000     2.229000000
C     0.071000000    -4.280000000     3.377000000
H    -0.789000000    -4.822000000     2.992000000
C     0.216000000    -4.031000000     4.760000000
O    -0.822000000    -4.377000000     5.651000000
C     1.472000000    -3.561000000     5.241000000
H     1.743000000    -3.512000000     6.293000000
C     2.418000000    -3.250000000     4.369000000
O     3.519000000    -2.668000000     4.892000000
C     4.713000000    -2.497000000     4.215000000
C     5.018000000    -1.200000000     3.715000000
H     4.367000000    -0.378000000     4.002000000
C     5.528000000    -3.555000000     3.861000000
H     5.308000000    -4.537000000     4.272000000
C     6.703000000    -3.315000000     3.186000000
H     7.400000000    -4.127000000     2.996000000
C     7.014000000    -2.066000000     2.678000000
H     7.926000000    -1.921000000     2.105000000
C     6.179000000    -0.940000000     2.976000000
O     6.526000000     0.376000000     2.670000000
C     5.825000000     1.124000000     1.691000000
C     5.812000000     2.489000000     1.762000000
H     6.285000000     3.062000000     2.555000000
C     4.997000000     3.091000000     0.836000000
O     4.740000000     4.425000000     1.020000000
C     4.307000000     5.276000000     0.081000000
C     2.993000000     5.626000000     0.158000000
H     2.287000000     5.173000000     0.850000000
C     5.165000000     5.684000000    -0.922000000
H     6.191000000     5.330000000    -0.987000000
C     4.667000000     6.535000000    -1.861000000
H     5.347000000     6.937000000    -2.607000000
C     3.336000000     6.921000000    -1.808000000
H     2.894000000     7.496000000    -2.616000000
C     2.474000000     6.525000000    -0.750000000
O     1.170000000     6.964000000    -0.616000000
C     0.083000000     6.167000000    -0.782000000
C    -1.001000000     6.279000000     0.140000000
H    -0.995000000     7.062000000     0.894000000
C    -2.155000000     5.504000000    -0.026000000
O    -3.206000000     5.624000000     0.869000000
C    -4.437000000     4.995000000     0.872000000
C    -4.686000000     3.811000000     1.584000000
H    -3.890000000     3.277000000     2.098000000
C    -5.512000000     5.516000000     0.161000000
H    -5.465000000     6.476000000    -0.346000000
C    -6.787000000     4.958000000     0.285000000
H    -7.636000000     5.342000000    -0.274000000
C    -7.012000000     3.854000000     1.083000000
H    -7.952000000     3.342000000     1.273000000
C    -5.893000000     3.202000000     1.608000000
O    -6.100000000     2.116000000     2.467000000
C    -5.465000000     0.934000000     2.371000000
C    -5.310000000     0.161000000     3.491000000
H    -5.575000000     0.464000000     4.500000000
C    -4.888000000    -1.148000000     3.357000000
O    -4.845000000    -1.880000000     4.454000000
C    -4.131000000    -3.076000000     4.676000000
C    -4.846000000    -4.247000000     4.924000000
H    -5.927000000    -4.165000000     5.001000000
C    -4.226000000    -5.401000000     5.479000000
H    -4.859000000    -6.193000000     5.870000000
C    -2.851000000    -5.412000000     5.694000000
H    -2.374000000    -6.158000000     6.324000000
C    -2.136000000    -4.300000000     5.307000000
C    -2.750000000    -3.122000000     4.888000000
H    -2.136000000    -2.237000000     4.745000000
C    -0.929000000     0.897000000     2.368000000
H    -1.216000000     0.823000000     3.414000000
C    -1.276000000    -0.171000000     1.554000000
H    -1.852000000    -0.972000000     2.009000000
C    -0.854000000    -0.221000000     0.273000000
H    -1.032000000    -1.089000000    -0.307000000
C    -0.055000000     0.790000000    -0.285000000
H     0.329000000     0.794000000    -1.302000000
C     0.171000000     2.008000000     0.480000000
H     0.723000000     2.851000000     0.073000000
C    -0.193000000     2.007000000     1.815000000
C     0.246000000     3.107000000     2.710000000
O     1.016000000     3.947000000     2.330000000
O     0.003000000     3.077000000     3.898000000
O     0.914000000     8.760000000     3.372000000
H     0.566000000     7.879000000     3.231000000
H     1.820000000     8.712000000     3.066000000
O    -1.918000000     2.815000000     5.728000000
H    -1.549000000     2.386000000     6.500000000
H    -1.161000000     2.994000000     5.169000000
O     3.283000000     6.839000000     4.608000000
H     3.149000000     6.032000000     4.111000000
H     3.359000000     7.522000000     3.942000000
O     0.104000000     6.588000000     6.248000000
H     0.214000000     6.095000000     5.435000000
H    -0.092000000     5.923000000     6.907000000
O     5.977000000     3.130000000     5.306000000
H     6.774000000     3.661000000     5.297000000
H     5.264000000     3.768000000     5.331000000
O     1.363000000     4.198000000     5.851000000
H     2.263000000     4.202000000     5.526000000
H     0.834000000     3.963000000     5.089000000
O     3.826000000     1.069000000     6.747000000
H     4.305000000     1.766000000     6.298000000
H     3.006000000     0.990000000     6.261000000
O    -4.070000000     4.441000000     7.811000000
H    -4.692000000     5.125000000     7.563000000
H    -3.817000000     4.036000000     6.981000000
O    -4.494000000     2.843000000     5.405000000
H    -4.786000000     2.214000000     6.064000000
H    -3.545000000     2.890000000     5.522000000
O     2.416000000    -0.518000000     1.363000000
H     1.914000000     0.189000000     0.958000000
H     1.982000000    -0.669000000     2.203000000
O    -2.666000000     7.877000000     6.243000000
H    -1.774000000     7.685000000     6.532000000
H    -2.941000000     7.089000000     5.775000000
O     1.194000000     0.947000000     5.649000000
H     0.821000000     1.605000000     5.062000000
H     0.538000000     0.843000000     6.338000000
O     3.335000000     8.291000000     2.298000000
H     4.247000000     8.564000000     2.401000000
H     3.232000000     8.153000000     1.357000000
O    -0.289000000     6.042000000     3.350000000
H    -1.192000000     5.799000000     3.552000000
H     0.106000000     5.238000000     3.012000000
O     3.299000000     4.218000000     3.617000000
H     3.932000000     3.942000000     2.954000000
H     2.446000000     4.008000000     3.237000000
O    -1.050000000     1.058000000     7.765000000
H    -0.496000000     0.336000000     8.063000000
H    -1.668000000     1.197000000     8.482000000
O     0.711000000     3.581000000     8.408000000
H     1.371000000     2.966000000     8.727000000
H     0.922000000     3.700000000     7.482000000
O    -1.285000000     5.464000000     8.387000000
H    -0.690000000     4.724000000     8.268000000
H    -2.135000000     5.138000000     8.092000000
O    -2.783000000     5.533000000     4.668000000
H    -2.648000000     4.642000000     4.991000000
H    -3.665000000     5.521000000     4.296000000
