215
-1453.83587
C     3.925000000     3.315000000    -1.547000000
H     3.240000000     3.676000000    -2.309000000
C     4.467000000     2.008000000    -1.402000000
C     5.399000000     1.755000000    -0.378000000
H     5.850000000     0.795000000    -0.139000000
C     3.708000000     0.854000000    -2.095000000
O     3.380000000     1.246000000    -3.430000000
H     2.812000000     0.708000000    -1.473000000
O     4.578000000    -0.260000000    -2.107000000
C     3.977000000    -1.429000000    -1.942000000
C     4.046000000    -1.978000000    -0.702000000
H     4.646000000    -1.505000000     0.072000000
C     3.384000000    -3.162000000    -0.379000000
O     3.321000000    -3.534000000     0.972000000
C     2.712000000    -3.812000000    -1.339000000
C     1.876000000    -5.007000000    -1.004000000
H     1.729000000    -5.668000000    -1.861000000
C     0.470000000    -4.713000000    -0.453000000
C    -0.564000000    -4.612000000    -1.370000000
H    -0.356000000    -4.775000000    -2.425000000
H     2.373000000    -5.713000000    -0.336000000
C     2.713000000    -3.333000000    -2.647000000
H     2.071000000    -3.915000000    -3.302000000
C     3.213000000    -2.135000000    -2.901000000
C     3.050000000    -1.570000000    -4.286000000
H     2.941000000    -2.350000000    -5.043000000
H     3.944000000    -1.193000000    -4.786000000
C     1.992000000    -0.541000000    -4.327000000
C     0.774000000    -0.924000000    -4.848000000
H     0.602000000    -1.937000000    -5.205000000
C     2.187000000     0.779000000    -4.008000000
C     1.204000000     1.694000000    -4.013000000
H     1.490000000     2.717000000    -3.779000000
C    -0.088000000     1.273000000    -4.301000000
O    -1.105000000     2.134000000    -4.177000000
C    -1.995000000     1.965000000    -3.066000000
C    -2.428000000     3.302000000    -2.408000000
C    -3.691000000     3.458000000    -1.768000000
H    -4.336000000     2.583000000    -1.751000000
C    -1.541000000     4.386000000    -2.360000000
H    -0.567000000     4.399000000    -2.842000000
O    -3.165000000     1.185000000    -3.335000000
H    -1.440000000     1.356000000    -2.336000000
C    -0.312000000    -0.020000000    -4.903000000
C    -1.706000000    -0.603000000    -5.269000000
H    -1.714000000    -1.359000000    -6.057000000
H    -2.182000000     0.296000000    -5.666000000
C    -2.456000000    -1.073000000    -4.054000000
C    -2.513000000    -2.409000000    -3.689000000
H    -1.957000000    -3.131000000    -4.280000000
C    -3.160000000    -0.187000000    -3.236000000
C    -3.888000000    -0.621000000    -2.117000000
H    -4.456000000     0.073000000    -1.501000000
C    -3.853000000    -1.995000000    -1.787000000
O    -4.498000000    -2.315000000    -0.576000000
C    -3.695000000    -2.365000000     0.565000000
C    -4.260000000    -1.648000000     1.830000000
C    -5.352000000    -0.766000000     1.622000000
H    -5.696000000    -0.606000000     0.603000000
C    -3.691000000    -1.775000000     3.096000000
H    -2.901000000    -2.505000000     3.249000000
O    -3.393000000    -3.731000000     0.809000000
H    -2.802000000    -1.789000000     0.281000000
C    -3.166000000    -2.920000000    -2.527000000
C    -2.981000000    -4.344000000    -2.036000000
H    -2.722000000    -5.013000000    -2.859000000
H    -3.890000000    -4.781000000    -1.617000000
C    -1.908000000    -4.353000000    -1.027000000
C    -2.140000000    -4.161000000     0.375000000
C    -1.119000000    -4.189000000     1.289000000
H    -1.280000000    -4.105000000     2.360000000
C     0.188000000    -4.409000000     0.889000000
O     1.162000000    -4.278000000     1.827000000
C     2.146000000    -3.129000000     1.649000000
H     1.655000000    -2.323000000     1.083000000
C     2.496000000    -2.594000000     3.044000000
C     3.672000000    -1.848000000     3.265000000
H     4.335000000    -1.699000000     2.417000000
C     1.534000000    -2.693000000     4.064000000
H     0.673000000    -3.307000000     3.814000000
C     1.776000000    -2.005000000     5.261000000
O     0.903000000    -2.128000000     6.325000000
C     2.908000000    -1.236000000     5.461000000
H     3.132000000    -0.664000000     6.358000000
C     3.851000000    -1.097000000     4.435000000
O     4.970000000    -0.384000000     4.632000000
C     5.937000000    -0.148000000     3.710000000
C     5.842000000     1.025000000     3.034000000
H     5.009000000     1.708000000     3.182000000
C     6.837000000    -1.067000000     3.307000000
H     6.889000000    -2.032000000     3.805000000
C     7.899000000    -0.724000000     2.468000000
H     8.675000000    -1.426000000     2.173000000
C     7.890000000     0.510000000     1.873000000
H     8.726000000     0.731000000     1.214000000
C     6.908000000     1.387000000     2.190000000
O     6.791000000     2.538000000     1.500000000
C     5.854000000     2.783000000     0.469000000
C     5.273000000     4.031000000     0.354000000
H     5.519000000     4.847000000     1.029000000
C     4.259000000     4.261000000    -0.611000000
O     3.658000000     5.500000000    -0.585000000
C     2.631000000     5.943000000    -1.440000000
C     1.334000000     6.060000000    -0.934000000
H     1.264000000     5.794000000     0.117000000
C     2.975000000     6.585000000    -2.653000000
H     4.006000000     6.495000000    -2.987000000
C     1.878000000     7.059000000    -3.477000000
H     1.979000000     7.340000000    -4.522000000
C     0.534000000     6.965000000    -3.048000000
H    -0.292000000     7.199000000    -3.714000000
C     0.259000000     6.574000000    -1.778000000
O    -1.009000000     6.478000000    -1.318000000
C    -1.905000000     5.517000000    -1.586000000
C    -3.191000000     5.579000000    -0.967000000
H    -3.418000000     6.508000000    -0.449000000
C    -4.073000000     4.515000000    -1.014000000
O    -5.207000000     4.513000000    -0.273000000
C    -6.087000000     3.476000000    -0.101000000
C    -5.955000000     2.633000000     1.011000000
H    -5.177000000     2.867000000     1.733000000
C    -7.102000000     3.267000000    -0.986000000
H    -7.240000000     3.924000000    -1.841000000
C    -8.052000000     2.236000000    -0.689000000
H    -8.914000000     2.124000000    -1.342000000
C    -7.942000000     1.447000000     0.418000000
H    -8.686000000     0.669000000     0.574000000
C    -6.818000000     1.575000000     1.271000000
O    -6.719000000     0.910000000     2.470000000
C    -5.816000000    -0.052000000     2.686000000
C    -5.313000000    -0.245000000     3.960000000
H    -5.764000000     0.254000000     4.814000000
C    -4.225000000    -1.070000000     4.178000000
O    -3.747000000    -1.122000000     5.500000000
C    -2.761000000    -1.959000000     5.840000000
C    -3.146000000    -3.299000000     6.080000000
H    -4.185000000    -3.609000000     6.157000000
C    -2.168000000    -4.202000000     6.562000000
H    -2.438000000    -5.208000000     6.875000000
C    -0.845000000    -3.826000000     6.647000000
H    -0.137000000    -4.567000000     7.009000000
C    -0.470000000    -2.515000000     6.303000000
C    -1.429000000    -1.562000000     5.905000000
H    -1.105000000    -0.561000000     5.633000000
C    -0.756000000     0.431000000     1.539000000
H    -1.242000000     0.407000000     2.511000000
C    -0.391000000    -0.743000000     1.121000000
H    -0.584000000    -1.634000000     1.714000000
C     0.010000000    -0.914000000    -0.175000000
H     0.183000000    -1.913000000    -0.541000000
C     0.342000000     0.174000000    -0.954000000
H     0.794000000     0.110000000    -1.941000000
C     0.202000000     1.433000000    -0.411000000
H     0.456000000     2.372000000    -0.896000000
C    -0.387000000     1.639000000     0.921000000
C    -0.660000000     2.983000000     1.612000000
O    -0.364000000     4.074000000     1.047000000
O    -1.317000000     2.949000000     2.659000000
O    -3.585000000     4.204000000     2.985000000
H    -3.783000000     4.781000000     2.248000000
H    -2.753000000     3.793000000     2.752000000
O     3.256000000     7.114000000     1.692000000
H     4.076000000     6.997000000     2.171000000
H     3.389000000     6.640000000     0.871000000
O     0.205000000     4.956000000     3.891000000
H     0.955000000     5.081000000     3.310000000
H    -0.339000000     4.308000000     3.443000000
O    -1.734000000     6.251000000     1.903000000
H    -1.368000000     5.367000000     1.862000000
H    -1.316000000     6.717000000     1.180000000
O     3.440000000     4.280000000     4.231000000
H     3.093000000     3.751000000     4.950000000
H     2.948000000     3.990000000     3.462000000
O     1.889000000     4.685000000     7.689000000
H     1.344000000     4.327000000     6.987000000
H     1.427000000     5.474000000     7.971000000
O    -6.162000000     7.111000000     0.758000000
H    -5.746000000     7.870000000     1.168000000
H    -5.456000000     6.471000000     0.667000000
O    -0.499000000     2.617000000     7.643000000
H     0.029000000     1.959000000     8.096000000
H    -1.119000000     2.107000000     7.121000000
O    -4.470000000     2.669000000     5.140000000
H    -4.026000000     3.168000000     4.455000000
H    -5.230000000     2.285000000     4.703000000
O     1.889000000     2.268000000     5.306000000
H     1.059000000     2.494000000     4.886000000
H     1.829000000     1.326000000     5.463000000
O    -1.870000000     1.856000000     5.224000000
H    -1.785000000     2.185000000     4.329000000
H    -2.794000000     1.620000000     5.306000000
O    -1.708000000     5.069000000     6.018000000
H    -1.152000000     5.306000000     5.275000000
H    -1.407000000     4.196000000     6.272000000
O     2.105000000     3.676000000     1.999000000
H     1.240000000     3.972000000     1.713000000
H     2.448000000     3.185000000     1.253000000
O    -0.279000000     7.455000000     4.870000000
H     0.239000000     8.166000000     4.493000000
H    -0.023000000     6.681000000     4.369000000
O    -2.612000000     8.770000000     3.508000000
H    -2.212000000     9.237000000     4.241000000
H    -2.219000000     7.897000000     3.537000000
O     5.235000000     6.487000000     3.403000000
H     4.569000000     5.921000000     3.792000000
H     5.430000000     7.130000000     4.085000000
O     1.729000000     8.649000000     3.345000000
H     2.236000000     8.086000000     2.761000000
H     2.248000000     9.450000000     3.416000000
O    -2.729000000     8.802000000     0.650000000
H    -2.275000000     9.046000000     1.457000000
H    -2.038000000     8.465000000     0.079000000
O    -5.636000000     6.107000000     4.252000000
H    -4.866000000     5.538000000     4.265000000
H    -5.284000000     6.989000000     4.368000000
