215
-1457.83678
C     4.002000000     3.539000000    -1.456000000
H     3.304000000     3.705000000    -2.272000000
C     4.288000000     2.243000000    -1.008000000
C     4.961000000     2.016000000     0.223000000
H     5.166000000     1.014000000     0.589000000
C     3.738000000     0.997000000    -1.774000000
O     3.529000000     1.317000000    -3.144000000
H     2.738000000     0.770000000    -1.375000000
O     4.599000000    -0.133000000    -1.679000000
C     4.069000000    -1.376000000    -1.500000000
C     3.778000000    -1.804000000    -0.187000000
H     3.994000000    -1.111000000     0.622000000
C     3.170000000    -3.020000000     0.107000000
O     2.981000000    -3.227000000     1.429000000
C     2.737000000    -3.830000000    -0.882000000
C     1.929000000    -5.124000000    -0.531000000
H     2.013000000    -5.924000000    -1.269000000
C     0.480000000    -4.829000000    -0.209000000
C    -0.474000000    -4.916000000    -1.232000000
H    -0.175000000    -5.170000000    -2.246000000
H     2.283000000    -5.601000000     0.385000000
C     2.899000000    -3.392000000    -2.211000000
H     2.415000000    -3.875000000    -3.056000000
C     3.607000000    -2.252000000    -2.559000000
C     3.625000000    -1.663000000    -3.924000000
H     3.369000000    -2.465000000    -4.619000000
H     4.572000000    -1.233000000    -4.256000000
C     2.479000000    -0.637000000    -4.103000000
C     1.313000000    -1.169000000    -4.655000000
H     1.190000000    -2.232000000    -4.849000000
C     2.548000000     0.765000000    -3.835000000
C     1.355000000     1.479000000    -3.986000000
H     1.284000000     2.557000000    -3.869000000
C     0.176000000     0.985000000    -4.504000000
O    -0.916000000     1.807000000    -4.452000000
C    -1.826000000     1.594000000    -3.431000000
C    -2.131000000     2.932000000    -2.839000000
C    -3.398000000     3.171000000    -2.291000000
H    -4.195000000     2.453000000    -2.465000000
C    -1.117000000     3.826000000    -2.493000000
H    -0.085000000     3.684000000    -2.804000000
O    -2.964000000     0.865000000    -3.975000000
H    -1.261000000     0.941000000    -2.750000000
C     0.188000000    -0.372000000    -4.768000000
C    -1.130000000    -0.959000000    -5.331000000
H    -0.928000000    -1.848000000    -5.932000000
H    -1.569000000    -0.282000000    -6.067000000
C    -2.067000000    -1.324000000    -4.145000000
C    -2.079000000    -2.633000000    -3.692000000
H    -1.463000000    -3.390000000    -4.171000000
C    -3.040000000    -0.471000000    -3.611000000
C    -3.908000000    -0.804000000    -2.611000000
H    -4.530000000    -0.027000000    -2.174000000
C    -3.763000000    -2.101000000    -2.010000000
O    -4.460000000    -2.325000000    -0.853000000
C    -3.756000000    -2.395000000     0.457000000
C    -4.497000000    -1.581000000     1.578000000
C    -5.289000000    -0.501000000     1.257000000
H    -5.645000000    -0.368000000     0.239000000
C    -4.100000000    -1.818000000     2.879000000
H    -3.428000000    -2.639000000     3.116000000
O    -3.428000000    -3.735000000     0.682000000
H    -2.788000000    -1.878000000     0.380000000
C    -2.903000000    -3.038000000    -2.664000000
C    -2.794000000    -4.502000000    -2.069000000
H    -2.434000000    -5.202000000    -2.825000000
H    -3.812000000    -4.813000000    -1.827000000
C    -1.800000000    -4.595000000    -0.940000000
C    -2.145000000    -4.120000000     0.340000000
C    -1.189000000    -4.192000000     1.372000000
H    -1.426000000    -3.982000000     2.412000000
C     0.166000000    -4.410000000     1.054000000
O     1.017000000    -4.181000000     2.083000000
C     1.705000000    -2.954000000     2.066000000
H     1.064000000    -2.210000000     1.570000000
C     1.977000000    -2.408000000     3.437000000
C     3.034000000    -1.603000000     3.720000000
H     3.750000000    -1.509000000     2.908000000
C     1.006000000    -2.587000000     4.459000000
H     0.174000000    -3.254000000     4.245000000
C     1.163000000    -1.953000000     5.660000000
O     0.118000000    -2.003000000     6.672000000
C     2.342000000    -1.281000000     5.947000000
H     2.536000000    -0.859000000     6.930000000
C     3.309000000    -1.077000000     4.956000000
O     4.359000000    -0.255000000     5.193000000
C     5.319000000     0.097000000     4.173000000
C     5.147000000     1.310000000     3.395000000
H     4.299000000     1.975000000     3.535000000
C     6.584000000    -0.527000000     4.152000000
H     6.787000000    -1.480000000     4.634000000
C     7.647000000    -0.059000000     3.344000000
H     8.585000000    -0.608000000     3.316000000
C     7.430000000     1.137000000     2.675000000
H     8.278000000     1.444000000     2.068000000
C     6.244000000     1.810000000     2.738000000
O     6.095000000     2.976000000     2.063000000
C     5.495000000     3.123000000     0.847000000
C     5.292000000     4.452000000     0.351000000
H     5.720000000     5.268000000     0.928000000
C     4.563000000     4.651000000    -0.827000000
O     4.359000000     5.893000000    -1.283000000
C     3.189000000     6.142000000    -2.031000000
C     1.967000000     6.118000000    -1.398000000
H     1.855000000     5.965000000    -0.328000000
C     3.312000000     6.322000000    -3.422000000
H     4.315000000     6.348000000    -3.839000000
C     2.238000000     6.441000000    -4.218000000
H     2.394000000     6.668000000    -5.270000000
C     0.973000000     6.336000000    -3.602000000
H     0.082000000     6.468000000    -4.212000000
C     0.832000000     6.074000000    -2.216000000
O    -0.362000000     5.993000000    -1.581000000
C    -1.316000000     5.024000000    -1.762000000
C    -2.543000000     5.212000000    -1.242000000
H    -2.722000000     6.132000000    -0.692000000
C    -3.641000000     4.333000000    -1.544000000
O    -4.898000000     4.644000000    -1.047000000
C    -5.842000000     3.740000000    -0.739000000
C    -5.632000000     2.889000000     0.430000000
H    -4.684000000     2.836000000     0.959000000
C    -6.977000000     3.586000000    -1.548000000
H    -7.179000000     4.207000000    -2.417000000
C    -7.952000000     2.623000000    -1.155000000
H    -8.771000000     2.490000000    -1.858000000
C    -7.822000000     1.945000000     0.061000000
H    -8.599000000     1.228000000     0.313000000
C    -6.682000000     2.045000000     0.825000000
O    -6.660000000     1.378000000     2.061000000
C    -5.793000000     0.313000000     2.277000000
C    -5.558000000    -0.039000000     3.571000000
H    -6.009000000     0.475000000     4.415000000
C    -4.653000000    -1.022000000     3.915000000
O    -4.285000000    -1.260000000     5.245000000
C    -3.304000000    -2.148000000     5.622000000
C    -3.602000000    -3.519000000     5.776000000
H    -4.519000000    -4.012000000     5.465000000
C    -2.605000000    -4.375000000     6.206000000
H    -2.913000000    -5.397000000     6.413000000
C    -1.343000000    -3.826000000     6.514000000
H    -0.547000000    -4.484000000     6.853000000
C    -1.133000000    -2.488000000     6.347000000
C    -2.092000000    -1.581000000     5.996000000
H    -2.001000000    -0.512000000     6.173000000
C    -0.678000000     0.374000000     2.363000000
H    -0.906000000     0.339000000     3.425000000
C    -1.008000000    -0.703000000     1.557000000
H    -1.534000000    -1.583000000     1.918000000
C    -0.615000000    -0.716000000     0.201000000
H    -0.718000000    -1.581000000    -0.535000000
C     0.174000000     0.350000000    -0.262000000
H     0.551000000     0.221000000    -1.273000000
C     0.546000000     1.455000000     0.541000000
H     1.207000000     2.245000000     0.195000000
C     0.112000000     1.415000000     1.848000000
C     0.458000000     2.533000000     2.755000000
O     1.296000000     3.349000000     2.400000000
O    -0.126000000     2.700000000     3.859000000
O    -2.706000000     3.809000000     3.887000000
H    -2.655000000     4.463000000     3.190000000
H    -1.799000000     3.542000000     4.033000000
O     3.261000000     7.612000000     1.723000000
H     3.586000000     8.028000000     2.521000000
H     3.555000000     8.187000000     1.016000000
O     0.133000000     5.485000000     5.215000000
H     0.904000000     5.871000000     4.799000000
H    -0.011000000     4.666000000     4.741000000
O    -0.484000000     5.263000000     1.324000000
H     0.105000000     4.718000000     1.847000000
H    -0.191000000     5.135000000     0.422000000
O     5.247000000     4.939000000     4.111000000
H     4.405000000     5.040000000     3.666000000
H     5.788000000     4.450000000     3.491000000
O     4.631000000     2.492000000     6.345000000
H     4.600000000     1.541000000     6.240000000
H     3.871000000     2.812000000     5.859000000
O    -2.975000000     5.898000000     1.905000000
H    -3.196000000     6.696000000     1.424000000
H    -2.100000000     5.665000000     1.594000000
O     0.093000000     3.518000000     9.070000000
H     0.527000000     2.703000000     9.324000000
H    -0.249000000     3.344000000     8.193000000
O     2.979000000     4.660000000     7.637000000
H     2.878000000     4.047000000     6.908000000
H     2.255000000     5.277000000     7.531000000
O    -0.072000000     8.023000000     2.744000000
H    -0.560000000     7.282000000     2.386000000
H     0.836000000     7.858000000     2.491000000
O    -3.405000000     2.311000000     6.031000000
H    -3.366000000     2.750000000     5.181000000
H    -4.341000000     2.232000000     6.217000000
O     2.554000000     3.372000000     5.201000000
H     2.605000000     4.013000000     4.492000000
H     1.847000000     2.782000000     4.940000000
O    -0.991000000     2.897000000     6.687000000
H    -0.456000000     2.690000000     5.921000000
H    -1.867000000     2.583000000     6.460000000
O     0.675000000     6.230000000     8.046000000
H     0.392000000     5.954000000     7.175000000
H     0.244000000     5.619000000     8.643000000
O     2.739000000     5.363000000     3.098000000
H     2.154000000     4.814000000     2.575000000
H     2.897000000     6.132000000     2.551000000
O    -2.297000000     7.604000000     4.522000000
H    -2.731000000     7.001000000     5.126000000
H    -1.363000000     7.463000000     4.672000000
O     5.439000000     5.431000000     6.704000000
H     5.223000000     5.034000000     5.861000000
H     4.659000000     5.293000000     7.242000000
O    -3.479000000     5.918000000     6.309000000
H    -3.462000000     5.032000000     5.945000000
H    -4.301000000     5.960000000     6.798000000
O    -5.178000000     5.572000000     3.438000000
H    -5.232000000     6.430000000     3.857000000
H    -4.499000000     5.673000000     2.771000000
