215
-1470.34191
C     4.582000000     2.548000000    -1.538000000
H     4.141000000     2.967000000    -2.439000000
C     4.426000000     1.170000000    -1.208000000
C     4.927000000     0.641000000    -0.010000000
H     4.933000000    -0.430000000     0.174000000
C     3.647000000     0.255000000    -2.169000000
O     3.431000000     0.906000000    -3.457000000
H     2.710000000    -0.070000000    -1.692000000
O     4.219000000    -1.064000000    -2.445000000
C     3.329000000    -2.158000000    -2.320000000
C     3.317000000    -2.856000000    -1.099000000
H     4.105000000    -2.667000000    -0.374000000
C     2.345000000    -3.803000000    -0.852000000
O     2.260000000    -4.346000000     0.385000000
C     1.427000000    -4.127000000    -1.859000000
C     0.407000000    -5.144000000    -1.658000000
H     0.157000000    -5.556000000    -2.638000000
C    -0.873000000    -4.527000000    -1.106000000
C    -2.020000000    -4.190000000    -1.894000000
H    -2.005000000    -4.431000000    -2.954000000
H     0.803000000    -5.934000000    -1.016000000
C     1.527000000    -3.512000000    -3.111000000
H     0.910000000    -3.850000000    -3.940000000
C     2.493000000    -2.491000000    -3.344000000
C     2.601000000    -1.750000000    -4.669000000
H     2.249000000    -2.457000000    -5.423000000
H     3.625000000    -1.504000000    -4.960000000
C     1.721000000    -0.491000000    -4.590000000
C     0.396000000    -0.514000000    -5.044000000
H     0.026000000    -1.404000000    -5.546000000
C     2.213000000     0.722000000    -4.070000000
C     1.306000000     1.794000000    -4.072000000
H     1.583000000     2.740000000    -3.614000000
C     0.038000000     1.735000000    -4.464000000
O    -0.739000000     2.876000000    -4.212000000
C    -1.568000000     2.815000000    -3.124000000
C    -1.419000000     4.034000000    -2.181000000
C    -2.422000000     4.186000000    -1.216000000
H    -3.207000000     3.437000000    -1.145000000
C    -0.322000000     4.890000000    -2.270000000
H     0.380000000     4.947000000    -3.097000000
O    -2.955000000     2.550000000    -3.401000000
H    -1.181000000     1.938000000    -2.585000000
C    -0.477000000     0.548000000    -4.965000000
C    -1.941000000     0.439000000    -5.348000000
H    -2.035000000    -0.427000000    -6.008000000
H    -2.265000000     1.273000000    -5.974000000
C    -2.871000000     0.198000000    -4.175000000
C    -3.187000000    -1.083000000    -3.836000000
H    -2.912000000    -1.860000000    -4.544000000
C    -3.333000000     1.204000000    -3.297000000
C    -4.122000000     0.854000000    -2.181000000
H    -4.603000000     1.578000000    -1.529000000
C    -4.318000000    -0.468000000    -1.783000000
O    -4.990000000    -0.762000000    -0.594000000
C    -4.168000000    -1.308000000     0.492000000
C    -4.569000000    -0.747000000     1.830000000
C    -5.041000000     0.546000000     1.973000000
H    -5.324000000     1.109000000     1.087000000
C    -4.250000000    -1.437000000     3.045000000
H    -3.670000000    -2.351000000     2.949000000
O    -4.215000000    -2.707000000     0.523000000
H    -3.111000000    -1.041000000     0.345000000
C    -3.885000000    -1.434000000    -2.656000000
C    -4.147000000    -2.877000000    -2.335000000
H    -4.233000000    -3.415000000    -3.281000000
H    -5.177000000    -2.972000000    -1.985000000
C    -3.125000000    -3.518000000    -1.369000000
C    -3.175000000    -3.355000000    -0.005000000
C    -2.098000000    -3.736000000     0.856000000
H    -2.243000000    -3.716000000     1.933000000
C    -1.007000000    -4.305000000     0.288000000
O    -0.009000000    -4.638000000     1.226000000
C     1.204000000    -3.797000000     1.188000000
H     0.850000000    -2.824000000     0.816000000
C     1.663000000    -3.527000000     2.604000000
C     3.020000000    -3.372000000     2.929000000
H     3.730000000    -3.318000000     2.108000000
C     0.736000000    -3.617000000     3.631000000
H    -0.322000000    -3.721000000     3.404000000
C     1.132000000    -3.548000000     4.980000000
O     0.206000000    -3.567000000     5.940000000
C     2.482000000    -3.326000000     5.260000000
H     2.787000000    -3.146000000     6.288000000
C     3.376000000    -3.150000000     4.259000000
O     4.709000000    -2.986000000     4.525000000
C     5.594000000    -2.285000000     3.684000000
C     5.299000000    -0.966000000     3.355000000
H     4.359000000    -0.574000000     3.736000000
C     6.913000000    -2.710000000     3.464000000
H     7.119000000    -3.748000000     3.715000000
C     7.750000000    -1.923000000     2.644000000
H     8.626000000    -2.325000000     2.143000000
C     7.392000000    -0.609000000     2.280000000
H     8.056000000     0.017000000     1.690000000
C     6.168000000    -0.105000000     2.648000000
O     5.760000000     1.171000000     2.294000000
C     5.471000000     1.511000000     0.934000000
C     5.568000000     2.855000000     0.649000000
H     5.910000000     3.589000000     1.374000000
C     5.196000000     3.338000000    -0.587000000
O     5.343000000     4.703000000    -0.689000000
C     4.387000000     5.488000000    -1.299000000
C     3.062000000     5.637000000    -0.858000000
H     2.672000000     5.027000000    -0.047000000
C     4.802000000     6.327000000    -2.262000000
H     5.842000000     6.222000000    -2.557000000
C     3.996000000     7.292000000    -2.879000000
H     4.377000000     7.955000000    -3.652000000
C     2.638000000     7.409000000    -2.488000000
H     1.963000000     8.109000000    -2.972000000
C     2.170000000     6.434000000    -1.563000000
O     0.865000000     6.627000000    -1.162000000
C    -0.141000000     5.760000000    -1.238000000
C    -1.071000000     5.809000000    -0.196000000
H    -1.104000000     6.602000000     0.547000000
C    -2.222000000     5.065000000    -0.183000000
O    -3.057000000     5.295000000     0.879000000
C    -4.254000000     4.731000000     0.994000000
C    -4.436000000     3.893000000     2.097000000
H    -3.612000000     3.852000000     2.805000000
C    -5.314000000     5.036000000     0.122000000
H    -5.185000000     5.602000000    -0.797000000
C    -6.518000000     4.397000000     0.332000000
H    -7.349000000     4.569000000    -0.347000000
C    -6.717000000     3.531000000     1.481000000
H    -7.665000000     3.034000000     1.666000000
C    -5.644000000     3.307000000     2.372000000
O    -5.711000000     2.368000000     3.393000000
C    -5.238000000     1.104000000     3.262000000
C    -4.945000000     0.363000000     4.437000000
H    -5.179000000     0.735000000     5.431000000
C    -4.403000000    -0.885000000     4.278000000
O    -4.149000000    -1.626000000     5.426000000
C    -3.279000000    -2.707000000     5.562000000
C    -3.856000000    -3.914000000     5.345000000
H    -4.903000000    -4.028000000     5.074000000
C    -3.087000000    -5.120000000     5.448000000
H    -3.574000000    -6.052000000     5.174000000
C    -1.725000000    -4.988000000     5.677000000
H    -1.000000000    -5.794000000     5.754000000
C    -1.149000000    -3.732000000     5.769000000
C    -1.917000000    -2.596000000     5.723000000
H    -1.499000000    -1.596000000     5.812000000
C    -1.341000000     2.095000000     1.935000000
H    -2.018000000     2.217000000     2.777000000
C    -1.346000000     0.956000000     1.178000000
H    -2.018000000     0.134000000     1.413000000
C    -0.473000000     0.766000000     0.145000000
H    -0.444000000    -0.155000000    -0.460000000
C     0.418000000     1.722000000    -0.225000000
H     1.141000000     1.577000000    -1.023000000
C     0.457000000     2.894000000     0.586000000
H     1.198000000     3.613000000     0.245000000
C    -0.376000000     3.075000000     1.649000000
C    -0.312000000     4.354000000     2.488000000
O     0.564000000     5.178000000     2.299000000
O    -1.048000000     4.503000000     3.460000000
O    -2.254000000     7.007000000     3.774000000
H    -1.922000000     7.658000000     3.155000000
H    -1.939000000     6.170000000     3.433000000
O     4.583000000     7.300000000     3.602000000
H     4.588000000     7.131000000     4.544000000
H     3.885000000     6.741000000     3.262000000
O     0.880000000     5.840000000     5.334000000
H     1.199000000     6.692000000     5.034000000
H     0.308000000     5.537000000     4.630000000
O     0.127000000     7.194000000     8.175000000
H     0.021000000     6.514000000     7.510000000
H     0.865000000     6.897000000     8.707000000
O     1.316000000     7.484000000     1.583000000
H     1.013000000     6.637000000     1.911000000
H     1.430000000     7.350000000     0.642000000
O     3.006000000     4.074000000     5.831000000
H     3.683000000     4.577000000     6.285000000
H     2.350000000     4.725000000     5.582000000
O    -5.507000000     7.914000000     2.824000000
H    -4.815000000     7.432000000     3.277000000
H    -6.320000000     7.560000000     3.185000000
O     1.803000000    -0.256000000     2.328000000
H     1.205000000     0.013000000     1.630000000
H     2.157000000     0.565000000     2.669000000
O    -2.069000000     1.914000000     7.081000000
H    -2.429000000     2.398000000     6.339000000
H    -1.164000000     2.218000000     7.149000000
O     1.555000000     9.988000000     2.923000000
H     1.593000000     9.158000000     2.447000000
H     2.239000000    10.525000000     2.523000000
O     3.097000000     2.382000000     3.707000000
H     2.950000000     2.945000000     4.467000000
H     3.987000000     2.049000000     3.823000000
O    -2.460000000     3.970000000     5.471000000
H    -2.113000000     4.196000000     4.609000000
H    -3.372000000     4.261000000     5.446000000
O     1.684000000     1.486000000     6.394000000
H     1.489000000     2.328000000     5.983000000
H     1.104000000     0.865000000     5.955000000
O    -4.157000000     8.241000000     0.237000000
H    -3.391000000     8.290000000     0.809000000
H    -4.898000000     8.149000000     0.836000000
O     3.090000000     4.924000000     2.555000000
H     3.185000000     3.997000000     2.778000000
H     2.144000000     5.068000000     2.530000000
O    -0.225000000     4.070000000     7.272000000
H     0.479000000     4.603000000     6.903000000
H    -0.991000000     4.285000000     6.741000000
O    -2.887000000     9.552000000     5.600000000
H    -3.074000000     9.404000000     6.527000000
H    -2.885000000     8.676000000     5.213000000
O    -2.416000000     9.283000000     1.930000000
H    -2.489000000     9.869000000     2.683000000
H    -1.688000000     9.639000000     1.420000000
O    -4.546000000     6.866000000     5.249000000
H    -5.021000000     6.076000000     5.509000000
H    -3.735000000     6.541000000     4.858000000
