215
-1417.13320
C     2.714000000     4.021000000    -0.711000000
H     2.170000000     4.379000000    -1.582000000
C     3.200000000     2.666000000    -0.619000000
C     3.623000000     2.244000000     0.610000000
H     4.052000000     1.245000000     0.614000000
C     3.168000000     1.722000000    -1.851000000
O     2.905000000     2.444000000    -3.079000000
H     2.350000000     1.002000000    -1.703000000
O     4.324000000     0.907000000    -1.943000000
C     4.116000000    -0.397000000    -2.084000000
C     4.208000000    -1.224000000    -0.950000000
H     4.637000000    -0.850000000    -0.024000000
C     3.795000000    -2.503000000    -0.914000000
O     4.010000000    -3.187000000     0.219000000
C     3.200000000    -3.102000000    -2.061000000
C     2.643000000    -4.484000000    -2.060000000
H     2.549000000    -4.860000000    -3.081000000
C     1.278000000    -4.555000000    -1.439000000
C     0.132000000    -4.460000000    -2.264000000
H     0.333000000    -4.295000000    -3.320000000
H     3.310000000    -5.213000000    -1.597000000
C     3.206000000    -2.363000000    -3.250000000
H     2.740000000    -2.919000000    -4.060000000
C     3.548000000    -1.002000000    -3.196000000
C     3.279000000    -0.134000000    -4.474000000
H     3.177000000    -0.786000000    -5.343000000
H     4.070000000     0.609000000    -4.599000000
C     1.977000000     0.653000000    -4.391000000
C     0.820000000     0.084000000    -4.910000000
H     0.878000000    -0.946000000    -5.253000000
C     1.850000000     1.972000000    -3.837000000
C     0.638000000     2.640000000    -3.821000000
H     0.632000000     3.615000000    -3.341000000
C    -0.469000000     2.034000000    -4.391000000
O    -1.699000000     2.650000000    -4.193000000
C    -2.562000000     2.129000000    -3.132000000
C    -3.230000000     3.246000000    -2.461000000
C    -4.488000000     3.110000000    -1.907000000
H    -4.982000000     2.151000000    -2.045000000
C    -2.479000000     4.390000000    -2.192000000
H    -1.434000000     4.328000000    -2.487000000
O    -3.449000000     1.146000000    -3.651000000
H    -1.914000000     1.686000000    -2.361000000
C    -0.389000000     0.752000000    -4.982000000
C    -1.601000000    -0.038000000    -5.564000000
H    -1.265000000    -0.714000000    -6.353000000
H    -2.356000000     0.599000000    -6.028000000
C    -2.320000000    -0.834000000    -4.386000000
C    -2.165000000    -2.232000000    -4.270000000
H    -1.521000000    -2.808000000    -4.931000000
C    -3.120000000    -0.187000000    -3.504000000
C    -3.681000000    -0.807000000    -2.437000000
H    -4.221000000    -0.160000000    -1.752000000
C    -3.402000000    -2.145000000    -2.184000000
O    -3.845000000    -2.596000000    -0.942000000
C    -2.854000000    -2.691000000     0.117000000
C    -3.335000000    -2.131000000     1.418000000
C    -3.922000000    -0.860000000     1.506000000
H    -4.172000000    -0.369000000     0.569000000
C    -3.179000000    -2.883000000     2.548000000
H    -2.839000000    -3.915000000     2.547000000
O    -2.473000000    -4.137000000     0.183000000
H    -2.027000000    -2.036000000    -0.195000000
C    -2.602000000    -2.841000000    -3.072000000
C    -2.274000000    -4.304000000    -2.764000000
H    -1.994000000    -4.911000000    -3.628000000
H    -3.122000000    -4.894000000    -2.411000000
C    -1.164000000    -4.429000000    -1.790000000
C    -1.309000000    -4.540000000    -0.415000000
C    -0.169000000    -4.590000000     0.393000000
H    -0.260000000    -4.535000000     1.475000000
C     1.117000000    -4.670000000    -0.087000000
O     2.152000000    -4.622000000     0.809000000
C     2.838000000    -3.397000000     1.034000000
H     2.205000000    -2.585000000     0.647000000
C     3.152000000    -3.191000000     2.555000000
C     4.369000000    -2.712000000     2.963000000
H     5.145000000    -2.546000000     2.220000000
C     2.176000000    -3.423000000     3.555000000
H     1.194000000    -3.757000000     3.229000000
C     2.484000000    -3.001000000     4.877000000
O     1.420000000    -3.014000000     5.774000000
C     3.712000000    -2.433000000     5.190000000
H     3.864000000    -1.947000000     6.150000000
C     4.707000000    -2.285000000     4.227000000
O     5.786000000    -1.591000000     4.573000000
C     5.903000000    -0.310000000     4.104000000
C     4.725000000     0.524000000     3.740000000
H     3.703000000     0.154000000     3.757000000
C     7.153000000     0.155000000     3.890000000
H     8.003000000    -0.423000000     4.245000000
C     7.365000000     1.398000000     3.294000000
H     8.375000000     1.725000000     3.064000000
C     6.303000000     2.248000000     3.088000000
H     6.441000000     3.229000000     2.641000000
C     5.027000000     1.790000000     3.353000000
O     3.952000000     2.542000000     2.985000000
C     3.668000000     3.048000000     1.701000000
C     3.246000000     4.341000000     1.607000000
H     3.236000000     5.004000000     2.469000000
C     2.816000000     4.863000000     0.403000000
O     2.214000000     6.067000000     0.449000000
C     1.339000000     6.532000000    -0.441000000
C    -0.005000000     6.378000000    -0.160000000
H    -0.456000000     5.957000000     0.735000000
C     1.796000000     7.187000000    -1.577000000
H     2.854000000     7.278000000    -1.809000000
C     0.887000000     7.632000000    -2.504000000
H     1.199000000     8.022000000    -3.470000000
C    -0.479000000     7.480000000    -2.185000000
H    -1.250000000     7.822000000    -2.871000000
C    -0.889000000     6.747000000    -1.105000000
O    -2.235000000     6.480000000    -0.864000000
C    -3.016000000     5.319000000    -1.312000000
C    -4.289000000     5.183000000    -0.766000000
H    -4.523000000     5.972000000    -0.055000000
C    -5.123000000     4.071000000    -1.157000000
O    -6.348000000     3.826000000    -0.641000000
C    -6.472000000     2.799000000     0.239000000
C    -5.604000000     2.487000000     1.270000000
H    -4.688000000     3.064000000     1.365000000
C    -7.616000000     2.005000000     0.076000000
H    -8.281000000     2.210000000    -0.760000000
C    -7.811000000     0.865000000     0.812000000
H    -8.765000000     0.343000000     0.802000000
C    -6.802000000     0.500000000     1.725000000
H    -6.963000000    -0.335000000     2.403000000
C    -5.762000000     1.365000000     1.972000000
O    -4.772000000     0.992000000     2.879000000
C    -4.236000000    -0.282000000     2.751000000
C    -4.024000000    -1.006000000     3.888000000
H    -4.056000000    -0.580000000     4.888000000
C    -3.545000000    -2.291000000     3.793000000
O    -3.290000000    -3.042000000     4.903000000
C    -2.156000000    -3.686000000     5.165000000
C    -2.261000000    -5.072000000     5.296000000
H    -3.172000000    -5.616000000     5.059000000
C    -1.073000000    -5.808000000     5.509000000
H    -1.149000000    -6.891000000     5.551000000
C     0.122000000    -5.114000000     5.716000000
H     0.971000000    -5.761000000     5.921000000
C     0.220000000    -3.729000000     5.650000000
C    -0.993000000    -3.043000000     5.389000000
H    -1.028000000    -1.957000000     5.386000000
C    -0.693000000     0.381000000     1.882000000
H    -0.912000000    -0.206000000     2.771000000
C    -0.238000000    -0.231000000     0.671000000
H    -0.047000000    -1.297000000     0.763000000
C     0.054000000     0.577000000    -0.407000000
H     0.403000000     0.089000000    -1.281000000
C    -0.289000000     1.936000000    -0.363000000
H     0.060000000     2.481000000    -1.236000000
C    -0.806000000     2.570000000     0.788000000
H    -1.016000000     3.634000000     0.708000000
C    -1.055000000     1.769000000     1.915000000
C    -1.673000000     2.368000000     3.177000000
O    -2.208000000     3.491000000     3.078000000
O    -1.415000000     1.911000000     4.309000000
O    -4.251000000     5.288000000     3.684000000
H    -3.993000000     5.019000000     4.566000000
H    -3.641000000     4.830000000     3.106000000
O    -6.143000000     2.215000000     8.010000000
H    -5.862000000     2.020000000     7.116000000
H    -5.329000000     2.280000000     8.509000000
O    -2.521000000     4.075000000     5.677000000
H    -2.337000000     3.466000000     4.962000000
H    -2.362000000     3.566000000     6.472000000
O    -6.903000000     5.869000000     5.393000000
H    -6.435000000     5.289000000     4.792000000
H    -7.019000000     6.681000000     4.900000000
O     0.569000000     4.181000000     5.238000000
H     0.732000000     4.041000000     6.171000000
H     0.142000000     3.376000000     4.946000000
O     3.290000000     1.491000000     6.300000000
H     3.449000000     0.705000000     6.821000000
H     2.348000000     1.642000000     6.374000000
O     3.891000000     4.585000000     4.771000000
H     2.936000000     4.650000000     4.766000000
H     4.072000000     3.694000000     4.470000000
O    -3.156000000     8.387000000     0.770000000
H    -2.786000000     7.615000000     0.342000000
H    -2.663000000     9.122000000     0.404000000
O    -0.011000000    -1.201000000     8.113000000
H    -0.938000000    -1.303000000     7.896000000
H     0.186000000    -1.947000000     8.679000000
O    -1.817000000     6.777000000     7.524000000
H    -2.438000000     6.159000000     7.139000000
H    -1.759000000     6.517000000     8.444000000
O    -0.329000000     8.126000000     2.432000000
H    -0.926000000     8.819000000     2.712000000
H    -0.727000000     7.320000000     2.762000000
O    -6.444000000     6.472000000     2.604000000
H    -6.199000000     7.378000000     2.419000000
H    -5.615000000     6.034000000     2.798000000
O     0.472000000     1.487000000     6.501000000
H    -0.052000000     1.565000000     5.704000000
H     0.259000000     0.618000000     6.843000000
O    -2.560000000     1.276000000     6.724000000
H    -2.195000000     1.483000000     5.863000000
H    -3.507000000     1.343000000     6.605000000
O    -0.827000000     5.891000000     3.680000000
H    -1.383000000     5.177000000     3.369000000
H    -0.086000000     5.452000000     4.099000000
O     1.560000000     6.627000000     6.087000000
H     1.268000000     5.719000000     6.008000000
H     0.751000000     7.138000000     6.108000000
O    -1.355000000     3.166000000     8.991000000
H    -0.997000000     2.777000000     9.789000000
H    -1.388000000     2.442000000     8.366000000
O     1.821000000     3.547000000     7.692000000
H     1.280000000     2.769000000     7.556000000
H     2.642000000     3.208000000     8.048000000
O    -5.371000000     1.942000000     5.479000000
H    -6.258000000     2.157000000     5.191000000
H    -4.846000000     1.972000000     4.679000000
