215
-1444.77055
C     3.752000000     3.740000000    -1.065000000
H     3.481000000     3.900000000    -2.106000000
C     3.994000000     2.361000000    -0.810000000
C     4.320000000     2.076000000     0.521000000
H     4.477000000     1.037000000     0.801000000
C     3.759000000     1.266000000    -1.779000000
O     3.640000000     1.714000000    -3.155000000
H     2.815000000     0.805000000    -1.454000000
O     4.707000000     0.161000000    -1.617000000
C     4.208000000    -1.126000000    -1.649000000
C     4.255000000    -1.855000000    -0.474000000
H     4.670000000    -1.478000000     0.457000000
C     3.671000000    -3.143000000    -0.413000000
O     3.488000000    -3.703000000     0.843000000
C     3.001000000    -3.658000000    -1.542000000
C     2.181000000    -4.948000000    -1.462000000
H     2.225000000    -5.414000000    -2.448000000
C     0.780000000    -4.787000000    -0.987000000
C    -0.238000000    -4.680000000    -1.967000000
H    -0.066000000    -4.736000000    -3.039000000
H     2.644000000    -5.602000000    -0.721000000
C     2.997000000    -2.872000000    -2.692000000
H     2.541000000    -3.260000000    -3.600000000
C     3.604000000    -1.662000000    -2.786000000
C     3.576000000    -1.068000000    -4.182000000
H     3.398000000    -1.762000000    -5.006000000
H     4.556000000    -0.615000000    -4.347000000
C     2.471000000    -0.114000000    -4.268000000
C     1.228000000    -0.524000000    -4.790000000
H     1.111000000    -1.483000000    -5.290000000
C     2.484000000     1.231000000    -3.829000000
C     1.420000000     2.046000000    -3.838000000
H     1.573000000     3.048000000    -3.444000000
C     0.170000000     1.590000000    -4.193000000
O    -0.982000000     2.390000000    -4.159000000
C    -2.002000000     2.073000000    -3.163000000
C    -2.444000000     3.366000000    -2.523000000
C    -3.792000000     3.481000000    -2.097000000
H    -4.424000000     2.609000000    -2.240000000
C    -1.593000000     4.461000000    -2.306000000
H    -0.555000000     4.424000000    -2.630000000
O    -3.150000000     1.337000000    -3.723000000
H    -1.503000000     1.649000000    -2.280000000
C     0.111000000     0.296000000    -4.686000000
C    -1.190000000    -0.176000000    -5.314000000
H    -0.917000000    -0.914000000    -6.071000000
H    -1.668000000     0.608000000    -5.905000000
C    -2.170000000    -0.872000000    -4.293000000
C    -2.126000000    -2.259000000    -4.005000000
H    -1.462000000    -2.945000000    -4.525000000
C    -3.055000000    -0.066000000    -3.552000000
C    -3.751000000    -0.557000000    -2.461000000
H    -4.435000000     0.100000000    -1.930000000
C    -3.701000000    -1.927000000    -2.137000000
O    -4.274000000    -2.278000000    -0.937000000
C    -3.301000000    -2.468000000     0.117000000
C    -3.947000000    -1.835000000     1.356000000
C    -4.579000000    -0.578000000     1.338000000
H    -4.676000000    -0.026000000     0.407000000
C    -3.764000000    -2.448000000     2.613000000
H    -3.281000000    -3.422000000     2.603000000
O    -3.045000000    -3.869000000     0.157000000
H    -2.386000000    -1.966000000    -0.233000000
C    -2.794000000    -2.758000000    -2.871000000
C    -2.595000000    -4.231000000    -2.562000000
H    -2.302000000    -4.748000000    -3.478000000
H    -3.510000000    -4.704000000    -2.200000000
C    -1.494000000    -4.427000000    -1.507000000
C    -1.822000000    -4.328000000    -0.203000000
C    -0.867000000    -4.445000000     0.769000000
H    -1.222000000    -4.368000000     1.793000000
C     0.455000000    -4.591000000     0.393000000
O     1.388000000    -4.571000000     1.408000000
C     2.273000000    -3.438000000     1.546000000
H     1.728000000    -2.611000000     1.066000000
C     2.337000000    -2.957000000     2.990000000
C     3.571000000    -2.455000000     3.484000000
H     4.419000000    -2.310000000     2.819000000
C     1.251000000    -3.104000000     3.870000000
H     0.289000000    -3.495000000     3.551000000
C     1.402000000    -2.679000000     5.220000000
O     0.278000000    -2.708000000     6.045000000
C     2.662000000    -2.219000000     5.688000000
H     2.636000000    -1.864000000     6.716000000
C     3.694000000    -2.048000000     4.796000000
O     4.831000000    -1.326000000     5.134000000
C     5.433000000    -0.463000000     4.286000000
C     4.751000000     0.689000000     3.924000000
H     3.748000000     0.908000000     4.283000000
C     6.772000000    -0.592000000     3.969000000
H     7.308000000    -1.468000000     4.325000000
C     7.431000000     0.435000000     3.264000000
H     8.469000000     0.347000000     2.952000000
C     6.756000000     1.572000000     2.794000000
H     7.208000000     2.249000000     2.073000000
C     5.427000000     1.682000000     3.158000000
O     4.734000000     2.780000000     2.772000000
C     4.341000000     3.069000000     1.483000000
C     4.183000000     4.403000000     1.181000000
H     4.235000000     5.135000000     1.983000000
C     3.744000000     4.761000000    -0.105000000
O     3.377000000     6.027000000    -0.413000000
C     2.404000000     6.428000000    -1.273000000
C     1.035000000     6.476000000    -0.887000000
H     0.766000000     6.327000000     0.156000000
C     2.806000000     6.729000000    -2.532000000
H     3.859000000     6.814000000    -2.788000000
C     1.808000000     6.956000000    -3.535000000
H     2.165000000     7.103000000    -4.552000000
C     0.485000000     7.010000000    -3.174000000
H    -0.266000000     7.217000000    -3.931000000
C     0.085000000     6.739000000    -1.871000000
O    -1.240000000     6.744000000    -1.587000000
C    -2.062000000     5.629000000    -1.666000000
C    -3.374000000     5.734000000    -1.343000000
H    -3.732000000     6.647000000    -0.874000000
C    -4.244000000     4.648000000    -1.464000000
O    -5.484000000     4.810000000    -0.933000000
C    -6.066000000     3.730000000    -0.233000000
C    -5.442000000     3.170000000     0.865000000
H    -4.556000000     3.657000000     1.265000000
C    -7.333000000     3.154000000    -0.591000000
H    -7.850000000     3.616000000    -1.428000000
C    -7.783000000     1.988000000    -0.004000000
H    -8.629000000     1.399000000    -0.351000000
C    -7.104000000     1.382000000     1.020000000
H    -7.448000000     0.416000000     1.382000000
C    -5.964000000     2.029000000     1.511000000
O    -5.330000000     1.371000000     2.495000000
C    -4.917000000     0.052000000     2.528000000
C    -4.847000000    -0.661000000     3.767000000
H    -5.216000000    -0.130000000     4.641000000
C    -4.348000000    -1.909000000     3.774000000
O    -4.332000000    -2.613000000     4.981000000
C    -3.217000000    -3.335000000     5.427000000
C    -3.305000000    -4.656000000     5.746000000
H    -4.300000000    -5.091000000     5.796000000
C    -2.164000000    -5.370000000     6.174000000
H    -2.342000000    -6.391000000     6.501000000
C    -0.961000000    -4.676000000     6.304000000
H    -0.110000000    -5.189000000     6.742000000
C    -0.906000000    -3.365000000     5.918000000
C    -2.002000000    -2.707000000     5.433000000
H    -1.939000000    -1.687000000     5.064000000
C    -0.557000000    -0.448000000     1.397000000
H    -0.824000000    -1.309000000     2.004000000
C    -0.142000000    -0.724000000     0.113000000
H    -0.059000000    -1.735000000    -0.276000000
C     0.410000000     0.298000000    -0.653000000
H     0.871000000     0.044000000    -1.560000000
C     0.340000000     1.596000000    -0.161000000
H     0.789000000     2.331000000    -0.825000000
C    -0.299000000     1.887000000     0.997000000
H    -0.382000000     2.838000000     1.517000000
C    -0.674000000     0.825000000     1.858000000
C    -1.247000000     1.283000000     3.219000000
O    -1.299000000     2.473000000     3.525000000
O    -1.649000000     0.405000000     3.984000000
O    -3.585000000     3.602000000     3.980000000
H    -3.985000000     2.771000000     4.237000000
H    -2.672000000     3.382000000     3.798000000
O    -4.680000000     2.594000000     8.337000000
H    -4.367000000     2.430000000     7.448000000
H    -4.518000000     1.773000000     8.803000000
O     1.087000000     4.130000000     6.410000000
H     0.856000000     4.207000000     5.485000000
H     1.025000000     3.193000000     6.596000000
O     0.167000000     4.594000000     3.441000000
H    -0.277000000     5.088000000     2.752000000
H    -0.119000000     3.690000000     3.309000000
O     4.685000000     4.161000000     5.456000000
H     4.538000000     5.107000000     5.430000000
H     3.807000000     3.783000000     5.498000000
O    -1.060000000    -0.495000000     8.189000000
H    -1.983000000    -0.566000000     8.430000000
H    -0.647000000    -1.259000000     8.591000000
O    -0.756000000     8.088000000     4.615000000
H    -0.782000000     7.183000000     4.927000000
H     0.153000000     8.358000000     4.741000000
O     0.604000000     1.251000000     9.706000000
H     1.132000000     0.521000000    10.030000000
H     0.227000000     0.928000000     8.887000000
O     0.050000000     8.482000000     2.059000000
H    -0.497000000     7.833000000     2.502000000
H    -0.393000000     9.316000000     2.216000000
O    -1.620000000     5.869000000     1.715000000
H    -2.277000000     6.444000000     2.109000000
H    -2.018000000     5.577000000     0.895000000
O    -4.620000000     6.197000000     4.509000000
H    -4.391000000     6.707000000     3.732000000
H    -4.339000000     5.306000000     4.304000000
O    -6.269000000    -4.453000000     4.143000000
H    -5.511000000    -4.046000000     3.724000000
H    -6.898000000    -4.577000000     3.432000000
O     0.169000000     0.228000000     5.744000000
H    -0.560000000     0.371000000     5.140000000
H    -0.158000000    -0.424000000     6.364000000
O    -3.080000000     1.458000000     5.963000000
H    -2.300000000     1.538000000     6.511000000
H    -2.742000000     1.238000000     5.094000000
O    -1.286000000     5.344000000     5.594000000
H    -2.010000000     4.745000000     5.409000000
H    -0.601000000     5.090000000     4.975000000
O     1.124000000     6.882000000     7.185000000
H     0.199000000     6.831000000     7.427000000
H     1.351000000     5.992000000     6.917000000
O     2.076000000     1.562000000     6.929000000
H     1.504000000     1.229000000     6.238000000
H     1.905000000     0.991000000     7.677000000
O    -7.325000000     1.554000000     5.335000000
H    -7.838000000     1.408000000     6.130000000
H    -7.057000000     0.678000000     5.058000000
O    -3.807000000    -0.617000000     7.829000000
H    -3.939000000    -0.219000000     6.968000000
H    -4.667000000    -0.575000000     8.247000000
