215
-1454.94628
C     3.643000000     4.000000000    -1.662000000
H     3.385000000     4.201000000    -2.699000000
C     3.594000000     2.647000000    -1.236000000
C     3.558000000     2.404000000     0.171000000
H     3.470000000     1.414000000     0.611000000
C     3.288000000     1.503000000    -2.109000000
O     2.996000000     1.928000000    -3.397000000
H     2.448000000     1.001000000    -1.608000000
O     4.402000000     0.580000000    -2.307000000
C     4.020000000    -0.780000000    -2.178000000
C     4.116000000    -1.381000000    -0.945000000
H     4.624000000    -0.873000000    -0.129000000
C     3.529000000    -2.629000000    -0.775000000
O     3.712000000    -3.108000000     0.454000000
C     2.975000000    -3.390000000    -1.791000000
C     2.475000000    -4.790000000    -1.622000000
H     2.378000000    -5.309000000    -2.578000000
C     1.073000000    -4.920000000    -0.922000000
C    -0.043000000    -4.937000000    -1.756000000
H     0.109000000    -5.029000000    -2.828000000
H     3.272000000    -5.297000000    -1.073000000
C     2.887000000    -2.771000000    -3.051000000
H     2.347000000    -3.180000000    -3.900000000
C     3.385000000    -1.446000000    -3.227000000
C     3.176000000    -0.772000000    -4.563000000
H     3.212000000    -1.433000000    -5.432000000
H     4.046000000    -0.164000000    -4.820000000
C     1.918000000     0.035000000    -4.534000000
C     0.723000000    -0.500000000    -4.995000000
H     0.729000000    -1.534000000    -5.331000000
C     1.929000000     1.336000000    -4.055000000
C     0.777000000     2.102000000    -3.972000000
H     0.900000000     3.064000000    -3.481000000
C    -0.425000000     1.526000000    -4.389000000
O    -1.513000000     2.291000000    -4.116000000
C    -2.326000000     1.981000000    -2.958000000
C    -2.818000000     3.282000000    -2.375000000
C    -3.970000000     3.315000000    -1.633000000
H    -4.574000000     2.412000000    -1.626000000
C    -1.991000000     4.434000000    -2.470000000
H    -1.149000000     4.528000000    -3.151000000
O    -3.404000000     1.082000000    -3.403000000
H    -1.772000000     1.677000000    -2.057000000
C    -0.481000000     0.241000000    -4.933000000
C    -1.802000000    -0.472000000    -5.260000000
H    -1.704000000    -1.214000000    -6.055000000
H    -2.462000000     0.295000000    -5.671000000
C    -2.401000000    -1.049000000    -4.050000000
C    -2.247000000    -2.427000000    -3.771000000
H    -1.763000000    -3.125000000    -4.449000000
C    -3.134000000    -0.263000000    -3.165000000
C    -3.678000000    -0.809000000    -2.013000000
H    -4.284000000    -0.247000000    -1.308000000
C    -3.453000000    -2.155000000    -1.705000000
O    -3.877000000    -2.592000000    -0.483000000
C    -2.975000000    -2.762000000     0.613000000
C    -3.443000000    -2.140000000     1.893000000
C    -4.105000000    -0.817000000     1.879000000
H    -4.493000000    -0.319000000     0.995000000
C    -3.195000000    -2.802000000     3.113000000
H    -2.758000000    -3.793000000     3.199000000
O    -2.615000000    -4.188000000     0.745000000
H    -2.077000000    -2.166000000     0.394000000
C    -2.732000000    -3.000000000    -2.578000000
C    -2.473000000    -4.499000000    -2.287000000
H    -2.248000000    -5.039000000    -3.209000000
H    -3.341000000    -5.056000000    -1.928000000
C    -1.290000000    -4.705000000    -1.292000000
C    -1.465000000    -4.590000000     0.142000000
C    -0.350000000    -4.579000000     0.988000000
H    -0.520000000    -4.441000000     2.053000000
C     0.899000000    -4.705000000     0.446000000
O     2.014000000    -4.607000000     1.236000000
C     2.553000000    -3.295000000     1.361000000
H     1.764000000    -2.570000000     1.113000000
C     2.808000000    -3.081000000     2.879000000
C     3.897000000    -2.315000000     3.206000000
H     4.688000000    -1.988000000     2.535000000
C     1.881000000    -3.459000000     3.866000000
H     0.970000000    -3.950000000     3.534000000
C     2.088000000    -3.058000000     5.233000000
O     1.212000000    -3.432000000     6.226000000
C     3.104000000    -2.185000000     5.491000000
H     3.240000000    -1.957000000     6.546000000
C     4.042000000    -1.839000000     4.541000000
O     5.010000000    -0.835000000     4.904000000
C     5.349000000     0.220000000     4.104000000
C     4.381000000     1.219000000     3.711000000
H     3.416000000     1.212000000     4.210000000
C     6.691000000     0.448000000     3.708000000
H     7.476000000    -0.208000000     4.077000000
C     7.003000000     1.571000000     2.922000000
H     8.017000000     1.817000000     2.616000000
C     6.033000000     2.395000000     2.467000000
H     6.307000000     3.348000000     2.022000000
C     4.687000000     2.293000000     2.893000000
O     3.646000000     3.152000000     2.442000000
C     3.640000000     3.414000000     1.058000000
C     3.534000000     4.727000000     0.605000000
H     3.446000000     5.526000000     1.337000000
C     3.580000000     5.060000000    -0.770000000
O     3.293000000     6.368000000    -1.171000000
C     2.143000000     6.585000000    -1.882000000
C     0.873000000     6.538000000    -1.347000000
H     0.783000000     6.348000000    -0.280000000
C     2.289000000     7.100000000    -3.190000000
H     3.252000000     7.372000000    -3.615000000
C     1.159000000     7.316000000    -4.064000000
H     1.277000000     7.746000000    -5.055000000
C    -0.142000000     7.101000000    -3.506000000
H    -1.039000000     7.275000000    -4.094000000
C    -0.241000000     6.799000000    -2.147000000
O    -1.439000000     6.646000000    -1.526000000
C    -2.353000000     5.527000000    -1.699000000
C    -3.492000000     5.522000000    -0.971000000
H    -3.661000000     6.369000000    -0.311000000
C    -4.280000000     4.430000000    -0.869000000
O    -5.404000000     4.529000000    -0.093000000
C    -5.948000000     3.357000000     0.392000000
C    -5.386000000     2.860000000     1.585000000
H    -4.665000000     3.459000000     2.135000000
C    -6.927000000     2.671000000    -0.231000000
H    -7.241000000     2.925000000    -1.240000000
C    -7.512000000     1.560000000     0.388000000
H    -8.374000000     1.042000000    -0.026000000
C    -6.927000000     1.031000000     1.519000000
H    -7.368000000     0.111000000     1.894000000
C    -5.771000000     1.631000000     2.090000000
O    -5.100000000     1.027000000     3.152000000
C    -4.483000000    -0.203000000     3.118000000
C    -4.208000000    -0.922000000     4.282000000
H    -4.387000000    -0.421000000     5.230000000
C    -3.578000000    -2.169000000     4.313000000
O    -3.468000000    -2.799000000     5.526000000
C    -2.369000000    -3.634000000     5.768000000
C    -2.517000000    -5.016000000     5.798000000
H    -3.494000000    -5.409000000     5.526000000
C    -1.435000000    -5.882000000     6.021000000
H    -1.600000000    -6.957000000     6.006000000
C    -0.159000000    -5.356000000     6.139000000
H     0.704000000    -6.006000000     6.261000000
C    -0.015000000    -3.959000000     6.106000000
C    -1.087000000    -3.123000000     5.818000000
H    -0.844000000    -2.065000000     5.757000000
C    -0.076000000    -0.041000000     2.109000000
H    -0.116000000    -0.466000000     3.109000000
C    -0.079000000    -0.814000000     1.014000000
H    -0.219000000    -1.885000000     1.131000000
C     0.075000000    -0.261000000    -0.312000000
H     0.069000000    -0.877000000    -1.225000000
C     0.051000000     1.089000000    -0.506000000
H     0.144000000     1.605000000    -1.458000000
C     0.078000000     1.940000000     0.679000000
H     0.185000000     3.019000000     0.605000000
C     0.091000000     1.356000000     1.984000000
C    -0.063000000     2.307000000     3.155000000
O    -0.412000000     3.476000000     2.957000000
O     0.139000000     1.873000000     4.299000000
O    -2.147000000     5.616000000     2.169000000
H    -2.110000000     6.454000000     2.629000000
H    -1.551000000     5.048000000     2.657000000
O    -5.069000000     5.822000000     2.797000000
H    -4.158000000     5.679000000     2.541000000
H    -5.396000000     6.466000000     2.170000000
O     0.627000000     3.995000000     8.584000000
H     0.671000000     4.631000000     9.298000000
H     0.844000000     3.158000000     8.994000000
O     5.512000000     4.709000000     4.469000000
H     5.493000000     3.767000000     4.637000000
H     4.621000000     5.004000000     4.657000000
O    -2.355000000     2.771000000     9.363000000
H    -1.486000000     2.460000000     9.108000000
H    -2.762000000     2.018000000     9.792000000
O    -2.447000000     8.046000000     3.213000000
H    -1.598000000     8.309000000     2.858000000
H    -3.048000000     8.112000000     2.470000000
O    -2.592000000     5.182000000     8.091000000
H    -2.432000000     4.326000000     8.487000000
H    -3.374000000     5.055000000     7.554000000
O    -0.075000000     8.499000000     2.072000000
H     0.558000000     9.019000000     2.567000000
H     0.184000000     7.591000000     2.232000000
O     0.730000000     5.888000000     2.822000000
H     0.378000000     5.026000000     2.602000000
H     1.024000000     5.803000000     3.728000000
O     1.365000000     0.263000000     6.132000000
H     1.060000000     0.872000000     5.459000000
H     0.566000000    -0.030000000     6.570000000
O    -2.753000000     3.298000000     4.294000000
H    -3.143000000     4.052000000     3.850000000
H    -1.863000000     3.248000000     3.944000000
O     0.725000000     4.517000000     5.556000000
H     0.484000000     3.739000000     5.052000000
H     0.354000000     4.364000000     6.425000000
O     3.305000000     5.409000000     6.161000000
H     2.536000000     4.874000000     5.967000000
H     3.237000000     5.595000000     7.098000000
O    -1.960000000     0.650000000     5.883000000
H    -1.381000000     1.173000000     5.330000000
H    -2.757000000     1.174000000     5.959000000
O     3.466000000     1.375000000     7.464000000
H     2.719000000     1.972000000     7.506000000
H     3.147000000     0.627000000     6.958000000
O    -4.901000000     2.737000000     5.906000000
H    -4.451000000     3.053000000     6.690000000
H    -4.273000000     2.878000000     5.198000000
O     0.288000000     7.629000000     5.822000000
H     0.282000000     6.710000000     5.555000000
H     0.506000000     7.607000000     6.753000000
O     4.595000000     7.795000000     5.196000000
H     4.017000000     8.271000000     4.599000000
H     4.150000000     6.961000000     5.347000000
O    -2.270000000    -0.856000000     8.145000000
H    -3.142000000    -1.249000000     8.148000000
H    -2.200000000    -0.435000000     7.288000000
