215
-1423.67383
C     3.063000000     4.035000000    -1.370000000
H     2.861000000     4.347000000    -2.391000000
C     3.338000000     2.698000000    -1.083000000
C     3.460000000     2.379000000     0.292000000
H     3.500000000     1.329000000     0.571000000
C     3.288000000     1.612000000    -2.110000000
O     3.113000000     2.139000000    -3.427000000
H     2.422000000     0.957000000    -1.934000000
O     4.418000000     0.769000000    -1.988000000
C     4.099000000    -0.563000000    -1.905000000
C     4.222000000    -1.250000000    -0.730000000
H     4.567000000    -0.672000000     0.123000000
C     3.775000000    -2.531000000    -0.526000000
O     3.837000000    -3.143000000     0.738000000
C     3.401000000    -3.257000000    -1.674000000
C     2.805000000    -4.625000000    -1.736000000
H     2.737000000    -4.941000000    -2.779000000
C     1.335000000    -4.712000000    -1.217000000
C     0.212000000    -4.676000000    -2.051000000
H     0.396000000    -4.707000000    -3.122000000
H     3.354000000    -5.376000000    -1.164000000
C     3.266000000    -2.576000000    -2.885000000
H     3.012000000    -3.124000000    -3.789000000
C     3.626000000    -1.255000000    -3.069000000
C     3.436000000    -0.507000000    -4.470000000
H     3.357000000    -1.185000000    -5.322000000
H     4.273000000     0.121000000    -4.781000000
C     2.149000000     0.298000000    -4.566000000
C     0.999000000    -0.238000000    -5.189000000
H     1.035000000    -1.283000000    -5.486000000
C     2.078000000     1.639000000    -4.164000000
C     0.902000000     2.351000000    -4.158000000
H     0.887000000     3.313000000    -3.653000000
C    -0.273000000     1.745000000    -4.636000000
O    -1.508000000     2.356000000    -4.344000000
C    -2.327000000     2.009000000    -3.239000000
C    -2.872000000     3.210000000    -2.590000000
C    -4.124000000     3.256000000    -1.979000000
H    -4.814000000     2.416000000    -1.963000000
C    -2.097000000     4.379000000    -2.482000000
H    -1.096000000     4.460000000    -2.898000000
O    -3.356000000     1.110000000    -3.655000000
H    -1.565000000     1.592000000    -2.564000000
C    -0.217000000     0.385000000    -5.161000000
C    -1.482000000    -0.448000000    -5.460000000
H    -1.136000000    -1.241000000    -6.125000000
H    -2.180000000     0.179000000    -6.018000000
C    -2.111000000    -0.980000000    -4.249000000
C    -1.833000000    -2.281000000    -3.760000000
H    -1.131000000    -2.880000000    -4.334000000
C    -3.040000000    -0.248000000    -3.458000000
C    -3.597000000    -0.766000000    -2.287000000
H    -4.256000000    -0.148000000    -1.681000000
C    -3.293000000    -2.023000000    -1.888000000
O    -3.817000000    -2.426000000    -0.720000000
C    -2.850000000    -2.604000000     0.334000000
C    -3.403000000    -2.079000000     1.668000000
C    -3.877000000    -0.826000000     1.740000000
H    -4.004000000    -0.217000000     0.849000000
C    -3.235000000    -2.884000000     2.810000000
H    -2.806000000    -3.882000000     2.776000000
O    -2.433000000    -4.032000000     0.477000000
H    -1.968000000    -1.987000000     0.110000000
C    -2.439000000    -2.823000000    -2.649000000
C    -2.264000000    -4.345000000    -2.368000000
H    -2.104000000    -4.848000000    -3.324000000
H    -3.094000000    -4.833000000    -1.853000000
C    -1.067000000    -4.515000000    -1.491000000
C    -1.230000000    -4.486000000    -0.097000000
C    -0.156000000    -4.688000000     0.718000000
H    -0.409000000    -4.516000000     1.761000000
C     1.149000000    -4.675000000     0.139000000
O     2.067000000    -4.679000000     1.057000000
C     2.650000000    -3.359000000     1.389000000
H     1.864000000    -2.617000000     1.186000000
C     2.918000000    -3.177000000     2.829000000
C     3.723000000    -2.148000000     3.259000000
H     4.423000000    -1.640000000     2.600000000
C     2.109000000    -3.858000000     3.786000000
H     1.327000000    -4.554000000     3.492000000
C     2.163000000    -3.636000000     5.159000000
O     1.354000000    -4.309000000     6.051000000
C     3.024000000    -2.568000000     5.604000000
H     2.939000000    -2.217000000     6.630000000
C     3.792000000    -1.912000000     4.616000000
O     4.599000000    -0.894000000     5.115000000
C     5.012000000     0.181000000     4.334000000
C     4.088000000     1.060000000     3.828000000
H     3.029000000     1.055000000     4.073000000
C     6.378000000     0.251000000     3.881000000
H     7.067000000    -0.570000000     4.058000000
C     6.744000000     1.423000000     3.193000000
H     7.782000000     1.417000000     2.868000000
C     5.765000000     2.330000000     2.771000000
H     6.089000000     3.188000000     2.187000000
C     4.416000000     2.132000000     3.056000000
O     3.456000000     3.023000000     2.635000000
C     3.254000000     3.359000000     1.293000000
C     3.179000000     4.722000000     0.919000000
H     3.430000000     5.532000000     1.599000000
C     2.988000000     5.062000000    -0.367000000
O     2.919000000     6.353000000    -0.770000000
C     1.909000000     6.673000000    -1.621000000
C     0.656000000     6.190000000    -1.312000000
H     0.437000000     5.583000000    -0.438000000
C     2.108000000     7.598000000    -2.665000000
H     3.104000000     7.969000000    -2.889000000
C     1.004000000     7.955000000    -3.483000000
H     1.188000000     8.637000000    -4.310000000
C    -0.250000000     7.494000000    -3.133000000
H    -1.158000000     7.890000000    -3.581000000
C    -0.451000000     6.713000000    -2.027000000
O    -1.702000000     6.497000000    -1.498000000
C    -2.590000000     5.487000000    -1.830000000
C    -3.828000000     5.465000000    -1.204000000
H    -4.201000000     6.372000000    -0.734000000
C    -4.560000000     4.278000000    -1.182000000
O    -5.781000000     4.186000000    -0.521000000
C    -6.121000000     3.144000000     0.331000000
C    -5.186000000     2.520000000     1.163000000
H    -4.122000000     2.744000000     1.178000000
C    -7.459000000     2.775000000     0.456000000
H    -8.190000000     3.226000000    -0.210000000
C    -7.813000000     1.680000000     1.338000000
H    -8.850000000     1.362000000     1.395000000
C    -6.870000000     1.098000000     2.190000000
H    -7.148000000     0.460000000     3.025000000
C    -5.560000000     1.601000000     2.184000000
O    -4.686000000     1.022000000     3.147000000
C    -4.251000000    -0.341000000     3.019000000
C    -3.987000000    -1.037000000     4.179000000
H    -4.190000000    -0.554000000     5.131000000
C    -3.530000000    -2.390000000     4.093000000
O    -3.154000000    -2.944000000     5.311000000
C    -2.245000000    -3.897000000     5.514000000
C    -2.662000000    -5.181000000     5.450000000
H    -3.710000000    -5.446000000     5.331000000
C    -1.737000000    -6.181000000     5.656000000
H    -2.043000000    -7.220000000     5.567000000
C    -0.444000000    -5.854000000     6.055000000
H     0.120000000    -6.676000000     6.490000000
C     0.040000000    -4.571000000     5.880000000
C    -0.898000000    -3.573000000     5.583000000
H    -0.591000000    -2.533000000     5.510000000
C    -0.478000000     0.355000000     2.713000000
H    -0.543000000    -0.332000000     3.553000000
C     0.079000000    -0.170000000     1.520000000
H     0.436000000    -1.174000000     1.309000000
C     0.281000000     0.681000000     0.422000000
H     0.677000000     0.297000000    -0.520000000
C    -0.135000000     2.010000000     0.524000000
H     0.069000000     2.664000000    -0.320000000
C    -0.764000000     2.514000000     1.686000000
H    -1.088000000     3.550000000     1.629000000
C    -0.846000000     1.716000000     2.807000000
C    -1.315000000     2.334000000     4.090000000
O    -1.989000000     3.314000000     4.176000000
O    -1.155000000     1.693000000     5.101000000
O    -3.021000000     5.346000000     2.868000000
H    -2.276000000     5.769000000     2.440000000
H    -2.634000000     4.627000000     3.366000000
O    -2.356000000     6.643000000     5.168000000
H    -1.636000000     6.091000000     5.474000000
H    -2.727000000     6.164000000     4.428000000
O    -5.574000000     6.585000000     3.000000000
H    -4.664000000     6.290000000     2.971000000
H    -5.647000000     7.205000000     2.274000000
O     1.146000000     2.991000000     7.215000000
H     1.650000000     2.901000000     8.024000000
H     0.956000000     2.091000000     6.950000000
O     2.588000000     0.275000000     8.890000000
H     2.369000000    -0.224000000     9.677000000
H     2.056000000    -0.122000000     8.200000000
O    -2.544000000     4.085000000    10.331000000
H    -2.711000000     3.201000000    10.659000000
H    -2.532000000     3.988000000     9.379000000
O    -1.604000000     7.384000000     1.480000000
H    -1.748000000     7.327000000     0.536000000
H    -2.269000000     8.001000000     1.787000000
O    -0.176000000    -1.429000000     8.007000000
H    -0.143000000    -2.273000000     8.459000000
H    -1.111000000    -1.254000000     7.896000000
O     1.258000000     6.327000000     3.623000000
H     0.354000000     6.017000000     3.666000000
H     1.467000000     6.585000000     4.521000000
O     0.877000000     0.326000000     6.194000000
H     0.167000000     0.668000000     5.652000000
H     0.435000000    -0.177000000     6.879000000
O    -4.504000000     2.767000000     5.427000000
H    -3.626000000     3.088000000     5.221000000
H    -4.767000000     2.273000000     4.650000000
O    -0.631000000     4.645000000     5.871000000
H    -1.179000000     3.985000000     5.447000000
H     0.042000000     4.139000000     6.327000000
O     1.852000000     7.470000000     5.932000000
H     2.104000000     8.391000000     5.866000000
H     0.979000000     7.488000000     6.323000000
O    -2.196000000     1.958000000     7.898000000
H    -1.927000000     1.860000000     6.984000000
H    -2.918000000     2.586000000     7.870000000
O     1.501000000     5.864000000     8.919000000
H     0.589000000     6.039000000     8.687000000
H     1.637000000     4.947000000     8.681000000
O    -4.289000000     4.002000000     7.891000000
H    -4.714000000     4.858000000     7.939000000
H    -4.488000000     3.684000000     7.010000000
O    -0.919000000     8.832000000     4.832000000
H    -1.519000000     9.573000000     4.915000000
H    -1.476000000     8.101000000     4.563000000
O    -4.103000000     0.607000000     9.475000000
H    -4.800000000     0.293000000     8.898000000
H    -3.444000000     0.964000000     8.880000000
O    -2.842000000    -2.694000000     8.193000000
H    -2.884000000    -2.806000000     7.243000000
H    -3.749000000    -2.785000000     8.485000000
