215
-1455.24972
C     2.992000000     3.934000000    -0.845000000
H     2.607000000     4.067000000    -1.852000000
C     3.353000000     2.639000000    -0.414000000
C     3.683000000     2.397000000     0.928000000
H     3.747000000     1.353000000     1.226000000
C     3.380000000     1.532000000    -1.411000000
O     3.247000000     1.963000000    -2.770000000
H     2.473000000     0.997000000    -1.091000000
O     4.499000000     0.658000000    -1.314000000
C     4.140000000    -0.667000000    -1.338000000
C     4.067000000    -1.336000000    -0.125000000
H     4.429000000    -0.855000000     0.780000000
C     3.727000000    -2.684000000    -0.108000000
O     3.566000000    -3.309000000     1.136000000
C     3.240000000    -3.324000000    -1.270000000
C     2.559000000    -4.744000000    -1.229000000
H     2.690000000    -5.168000000    -2.226000000
C     1.121000000    -4.731000000    -0.803000000
C     0.189000000    -4.574000000    -1.826000000
H     0.554000000    -4.666000000    -2.846000000
H     3.167000000    -5.403000000    -0.605000000
C     3.407000000    -2.682000000    -2.448000000
H     3.264000000    -3.199000000    -3.394000000
C     3.880000000    -1.364000000    -2.538000000
C     3.907000000    -0.577000000    -3.876000000
H     4.056000000    -1.206000000    -4.756000000
H     4.714000000     0.151000000    -3.777000000
C     2.584000000     0.141000000    -4.167000000
C     1.502000000    -0.476000000    -4.832000000
H     1.577000000    -1.514000000    -5.144000000
C     2.412000000     1.405000000    -3.698000000
C     1.222000000     2.066000000    -3.804000000
H     1.085000000     3.086000000    -3.453000000
C     0.152000000     1.492000000    -4.455000000
O    -1.020000000     2.149000000    -4.607000000
C    -1.943000000     1.780000000    -3.593000000
C    -2.317000000     3.018000000    -2.891000000
C    -3.211000000     2.956000000    -1.799000000
H    -3.681000000     2.007000000    -1.553000000
C    -1.742000000     4.281000000    -3.230000000
H    -1.072000000     4.351000000    -4.082000000
O    -2.983000000     1.049000000    -4.115000000
H    -1.364000000     1.236000000    -2.833000000
C     0.290000000     0.170000000    -4.964000000
C    -0.960000000    -0.477000000    -5.595000000
H    -0.765000000    -1.355000000    -6.215000000
H    -1.537000000     0.228000000    -6.197000000
C    -1.869000000    -1.066000000    -4.489000000
C    -1.728000000    -2.403000000    -4.139000000
H    -1.154000000    -3.115000000    -4.727000000
C    -2.827000000    -0.308000000    -3.781000000
C    -3.566000000    -0.903000000    -2.741000000
H    -4.250000000    -0.243000000    -2.214000000
C    -3.409000000    -2.196000000    -2.366000000
O    -4.091000000    -2.711000000    -1.272000000
C    -3.298000000    -2.854000000    -0.033000000
C    -3.980000000    -2.343000000     1.271000000
C    -4.887000000    -1.333000000     1.141000000
H    -5.165000000    -0.872000000     0.196000000
C    -3.589000000    -2.700000000     2.557000000
H    -2.837000000    -3.483000000     2.613000000
O    -2.880000000    -4.243000000     0.144000000
H    -2.369000000    -2.287000000    -0.191000000
C    -2.429000000    -2.996000000    -3.074000000
C    -2.153000000    -4.435000000    -2.702000000
H    -1.654000000    -4.949000000    -3.527000000
H    -3.037000000    -5.069000000    -2.611000000
C    -1.185000000    -4.494000000    -1.538000000
C    -1.586000000    -4.430000000    -0.207000000
C    -0.598000000    -4.491000000     0.726000000
H    -0.975000000    -4.441000000     1.745000000
C     0.746000000    -4.555000000     0.524000000
O     1.574000000    -4.490000000     1.583000000
C     2.324000000    -3.246000000     1.813000000
H     1.716000000    -2.486000000     1.301000000
C     2.424000000    -2.885000000     3.312000000
C     3.381000000    -1.921000000     3.682000000
H     4.196000000    -1.616000000     3.031000000
C     1.512000000    -3.442000000     4.245000000
H     0.734000000    -4.118000000     3.900000000
C     1.494000000    -2.925000000     5.494000000
O     0.530000000    -3.287000000     6.344000000
C     2.520000000    -2.070000000     5.931000000
H     2.627000000    -1.759000000     6.967000000
C     3.461000000    -1.626000000     5.037000000
O     4.422000000    -0.759000000     5.565000000
C     5.012000000     0.192000000     4.774000000
C     4.299000000     1.314000000     4.372000000
H     3.284000000     1.346000000     4.758000000
C     6.352000000     0.027000000     4.455000000
H     6.812000000    -0.911000000     4.753000000
C     6.928000000     0.965000000     3.623000000
H     7.946000000     0.819000000     3.272000000
C     6.164000000     1.990000000     3.060000000
H     6.682000000     2.752000000     2.483000000
C     4.862000000     2.234000000     3.511000000
O     4.182000000     3.362000000     3.137000000
C     3.802000000     3.559000000     1.797000000
C     3.557000000     4.808000000     1.309000000
H     3.595000000     5.658000000     1.985000000
C     3.113000000     5.056000000     0.019000000
O     2.767000000     6.369000000    -0.379000000
C     2.085000000     6.750000000    -1.527000000
C     0.726000000     6.425000000    -1.744000000
H     0.285000000     5.716000000    -1.048000000
C     2.610000000     7.595000000    -2.467000000
H     3.687000000     7.740000000    -2.491000000
C     1.850000000     8.008000000    -3.532000000
H     2.307000000     8.590000000    -4.328000000
C     0.507000000     7.758000000    -3.662000000
H    -0.088000000     8.265000000    -4.417000000
C    -0.063000000     6.899000000    -2.762000000
O    -1.430000000     6.648000000    -2.766000000
C    -2.041000000     5.404000000    -2.484000000
C    -2.930000000     5.287000000    -1.456000000
H    -3.397000000     6.132000000    -0.956000000
C    -3.581000000     4.076000000    -1.094000000
O    -4.439000000     4.031000000     0.022000000
C    -5.486000000     3.089000000     0.160000000
C    -5.447000000     2.149000000     1.149000000
H    -4.717000000     2.249000000     1.949000000
C    -6.469000000     3.105000000    -0.853000000
H    -6.628000000     3.898000000    -1.580000000
C    -7.436000000     2.084000000    -0.839000000
H    -8.229000000     2.034000000    -1.580000000
C    -7.379000000     1.091000000     0.133000000
H    -8.149000000     0.327000000     0.070000000
C    -6.458000000     1.173000000     1.200000000
O    -6.459000000     0.237000000     2.191000000
C    -5.462000000    -0.751000000     2.300000000
C    -5.117000000    -1.211000000     3.550000000
H    -5.615000000    -0.750000000     4.400000000
C    -4.283000000    -2.265000000     3.660000000
O    -4.103000000    -2.844000000     4.902000000
C    -2.977000000    -3.587000000     5.286000000
C    -3.279000000    -4.904000000     5.617000000
H    -4.302000000    -5.251000000     5.496000000
C    -2.289000000    -5.649000000     6.199000000
H    -2.548000000    -6.678000000     6.433000000
C    -1.049000000    -5.127000000     6.431000000
H    -0.430000000    -5.794000000     7.025000000
C    -0.752000000    -3.787000000     6.048000000
C    -1.792000000    -2.996000000     5.576000000
H    -1.624000000    -1.940000000     5.382000000
C    -0.799000000    -0.378000000     1.501000000
H    -1.109000000    -1.078000000     2.272000000
C    -0.226000000    -0.796000000     0.328000000
H    -0.052000000    -1.852000000     0.139000000
C     0.135000000     0.125000000    -0.703000000
H     0.692000000    -0.227000000    -1.509000000
C    -0.208000000     1.478000000    -0.586000000
H    -0.035000000     2.201000000    -1.380000000
C    -0.873000000     1.846000000     0.626000000
H    -1.081000000     2.899000000     0.803000000
C    -1.138000000     0.951000000     1.668000000
C    -1.698000000     1.412000000     3.014000000
O    -2.175000000     2.523000000     3.059000000
O    -1.610000000     0.725000000     4.020000000
O    -4.431000000     2.661000000     4.449000000
H    -4.229000000     2.048000000     5.155000000
H    -3.654000000     2.647000000     3.890000000
O    -5.299000000     2.964000000     8.065000000
H    -5.118000000     2.613000000     8.937000000
H    -4.441000000     3.012000000     7.644000000
O     2.445000000     4.933000000     4.739000000
H     1.523000000     4.859000000     4.493000000
H     2.900000000     4.333000000     4.148000000
O    -0.169000000     4.175000000     3.589000000
H    -0.498000000     5.017000000     3.274000000
H    -0.786000000     3.531000000     3.241000000
O     0.679000000     5.142000000     7.295000000
H     1.350000000     4.785000000     7.878000000
H     0.305000000     4.374000000     6.863000000
O    -1.554000000    -1.240000000     8.002000000
H    -2.496000000    -1.220000000     7.835000000
H    -1.460000000    -1.794000000     8.776000000
O    -2.552000000     5.176000000     2.262000000
H    -2.574000000     4.398000000     2.819000000
H    -3.473000000     5.377000000     2.096000000
O    -4.576000000     5.043000000     5.908000000
H    -4.716000000     5.749000000     5.277000000
H    -4.598000000     4.243000000     5.382000000
O    -0.071000000     0.544000000     6.074000000
H    -0.678000000     0.599000000     5.336000000
H    -0.476000000    -0.087000000     6.670000000
O    -7.561000000     1.474000000     7.068000000
H    -6.996000000     2.044000000     7.589000000
H    -7.176000000     1.488000000     6.192000000
O    -3.304000000     0.700000000     6.061000000
H    -3.550000000    -0.155000000     6.413000000
H    -2.555000000     0.518000000     5.494000000
O    -0.905000000     3.164000000     6.065000000
H    -0.909000000     2.215000000     5.941000000
H    -0.789000000     3.520000000     5.185000000
O     2.229000000     1.337000000     7.295000000
H     1.621000000     1.229000000     6.563000000
H     2.112000000     0.547000000     7.823000000
O    -1.241000000     8.158000000     0.710000000
H    -1.056000000     8.833000000     1.363000000
H    -1.712000000     7.480000000     1.194000000
O    -7.158000000     3.197000000     4.208000000
H    -7.378000000     4.087000000     3.934000000
H    -6.238000000     3.092000000     3.966000000
O    -2.681000000     4.597000000     7.629000000
H    -2.145000000     4.262000000     6.911000000
H    -3.448000000     4.976000000     7.199000000
O    -4.365000000    -1.490000000     7.656000000
H    -5.033000000    -1.486000000     6.971000000
H    -4.813000000    -1.147000000     8.430000000
O    -0.607000000     2.158000000     9.087000000
H    -0.591000000     2.364000000     8.152000000
H    -0.627000000     3.012000000     9.519000000
O    -5.005000000     6.835000000     3.966000000
H    -4.599000000     7.635000000     4.299000000
H    -4.920000000     6.900000000     3.015000000
