215
-1455.59198
C     2.662000000     3.938000000    -2.385000000
H     1.660000000     4.140000000    -2.755000000
C     3.230000000     2.718000000    -2.740000000
C     4.589000000     2.494000000    -2.465000000
H     5.017000000     1.510000000    -2.637000000
C     2.394000000     1.653000000    -3.386000000
O     1.499000000     2.141000000    -4.349000000
H     1.981000000     1.041000000    -2.571000000
O     3.204000000     0.732000000    -4.106000000
C     2.868000000    -0.612000000    -3.821000000
C     3.514000000    -1.234000000    -2.738000000
H     4.249000000    -0.733000000    -2.114000000
C     3.112000000    -2.487000000    -2.374000000
O     3.587000000    -3.030000000    -1.153000000
C     2.092000000    -3.177000000    -3.140000000
C     1.551000000    -4.525000000    -2.717000000
H     1.123000000    -5.075000000    -3.558000000
C     0.485000000    -4.306000000    -1.638000000
C    -0.851000000    -4.372000000    -1.929000000
H    -1.111000000    -4.411000000    -2.983000000
H     2.407000000    -5.066000000    -2.308000000
C     1.485000000    -2.575000000    -4.271000000
H     0.664000000    -3.077000000    -4.777000000
C     1.907000000    -1.299000000    -4.643000000
C     1.115000000    -0.543000000    -5.746000000
H     0.655000000    -1.359000000    -6.308000000
H     1.802000000     0.035000000    -6.368000000
C    -0.025000000     0.311000000    -5.103000000
C    -1.357000000    -0.185000000    -5.111000000
H    -1.529000000    -1.139000000    -5.603000000
C     0.241000000     1.538000000    -4.447000000
C    -0.774000000     2.147000000    -3.727000000
H    -0.608000000     3.151000000    -3.346000000
C    -2.113000000     1.691000000    -3.748000000
O    -3.016000000     2.383000000    -2.897000000
C    -3.248000000     1.894000000    -1.643000000
C    -3.199000000     3.052000000    -0.610000000
C    -3.832000000     2.779000000     0.592000000
H    -4.344000000     1.839000000     0.784000000
C    -2.489000000     4.237000000    -0.851000000
H    -1.947000000     4.431000000    -1.773000000
O    -4.357000000     1.067000000    -1.565000000
H    -2.499000000     1.187000000    -1.257000000
C    -2.404000000     0.418000000    -4.358000000
C    -3.818000000    -0.208000000    -4.126000000
H    -3.882000000    -0.843000000    -5.012000000
H    -4.613000000     0.537000000    -4.210000000
C    -4.055000000    -0.937000000    -2.822000000
C    -3.598000000    -2.218000000    -2.722000000
H    -3.061000000    -2.624000000    -3.576000000
C    -4.330000000    -0.251000000    -1.657000000
C    -4.524000000    -0.936000000    -0.483000000
H    -4.925000000    -0.405000000     0.377000000
C    -4.300000000    -2.296000000    -0.423000000
O    -4.297000000    -2.964000000     0.783000000
C    -3.016000000    -3.017000000     1.533000000
C    -3.053000000    -2.576000000     2.972000000
C    -4.083000000    -1.687000000     3.388000000
H    -4.920000000    -1.544000000     2.709000000
C    -2.042000000    -2.842000000     3.812000000
H    -1.179000000    -3.464000000     3.590000000
O    -2.430000000    -4.358000000     1.430000000
H    -2.289000000    -2.358000000     1.037000000
C    -3.783000000    -2.966000000    -1.582000000
C    -3.304000000    -4.378000000    -1.423000000
H    -3.435000000    -4.829000000    -2.409000000
H    -3.874000000    -5.026000000    -0.754000000
C    -1.843000000    -4.429000000    -0.953000000
C    -1.510000000    -4.573000000     0.442000000
C    -0.196000000    -4.547000000     0.772000000
H     0.061000000    -4.430000000     1.822000000
C     0.757000000    -4.418000000    -0.256000000
O     2.072000000    -4.223000000     0.155000000
C     2.708000000    -2.911000000    -0.005000000
H     1.951000000    -2.199000000    -0.364000000
C     3.357000000    -2.400000000     1.276000000
C     4.207000000    -1.316000000     1.267000000
H     4.409000000    -0.793000000     0.336000000
C     3.138000000    -3.011000000     2.496000000
H     2.438000000    -3.831000000     2.639000000
C     3.721000000    -2.563000000     3.694000000
O     3.564000000    -3.098000000     4.999000000
C     4.507000000    -1.433000000     3.606000000
H     4.854000000    -1.002000000     4.541000000
C     4.742000000    -0.851000000     2.444000000
O     5.458000000     0.396000000     2.494000000
C     6.359000000     0.786000000     1.487000000
C     5.987000000     1.828000000     0.618000000
H     4.993000000     2.269000000     0.625000000
C     7.611000000     0.180000000     1.424000000
H     7.841000000    -0.644000000     2.095000000
C     8.494000000     0.505000000     0.376000000
H     9.482000000     0.061000000     0.288000000
C     8.115000000     1.519000000    -0.527000000
H     8.753000000     1.952000000    -1.293000000
C     6.860000000     2.142000000    -0.430000000
O     6.553000000     3.148000000    -1.353000000
C     5.296000000     3.462000000    -1.815000000
C     4.724000000     4.647000000    -1.316000000
H     5.327000000     5.243000000    -0.636000000
C     3.412000000     4.899000000    -1.624000000
O     2.782000000     5.963000000    -0.956000000
C     1.580000000     6.416000000    -1.397000000
C     0.456000000     6.079000000    -0.647000000
H     0.548000000     5.405000000     0.201000000
C     1.416000000     7.366000000    -2.458000000
H     2.304000000     7.683000000    -2.998000000
C     0.144000000     7.919000000    -2.701000000
H     0.037000000     8.675000000    -3.474000000
C    -0.928000000     7.521000000    -1.909000000
H    -1.888000000     8.025000000    -1.980000000
C    -0.786000000     6.664000000    -0.865000000
O    -1.819000000     6.381000000     0.025000000
C    -2.586000000     5.241000000     0.095000000
C    -3.284000000     5.061000000     1.259000000
H    -3.206000000     5.761000000     2.088000000
C    -3.906000000     3.862000000     1.513000000
O    -4.792000000     3.737000000     2.530000000
C    -5.512000000     2.584000000     2.856000000
C    -4.930000000     1.634000000     3.759000000
H    -3.918000000     1.859000000     4.083000000
C    -6.869000000     2.434000000     2.576000000
H    -7.339000000     3.197000000     1.959000000
C    -7.567000000     1.326000000     2.987000000
H    -8.550000000     1.079000000     2.593000000
C    -7.012000000     0.450000000     3.895000000
H    -7.618000000    -0.392000000     4.218000000
C    -5.679000000     0.540000000     4.190000000
O    -5.117000000    -0.339000000     5.045000000
C    -4.068000000    -1.077000000     4.643000000
C    -3.044000000    -1.471000000     5.486000000
H    -3.006000000    -1.120000000     6.514000000
C    -2.020000000    -2.367000000     5.126000000
O    -1.045000000    -2.694000000     6.125000000
C     0.090000000    -3.517000000     6.005000000
C     0.115000000    -4.834000000     6.574000000
H    -0.840000000    -5.255000000     6.875000000
C     1.299000000    -5.537000000     6.551000000
H     1.308000000    -6.574000000     6.876000000
C     2.343000000    -5.011000000     5.802000000
H     3.145000000    -5.736000000     5.689000000
C     2.401000000    -3.670000000     5.425000000
C     1.252000000    -2.897000000     5.524000000
H     1.264000000    -1.883000000     5.132000000
C    -0.616000000     0.015000000     1.761000000
H    -0.911000000    -0.809000000     2.406000000
C    -0.282000000    -0.292000000     0.422000000
H    -0.400000000    -1.306000000     0.046000000
C     0.077000000     0.781000000    -0.440000000
H     0.194000000     0.682000000    -1.536000000
C     0.048000000     2.088000000     0.028000000
H     0.301000000     2.879000000    -0.674000000
C    -0.330000000     2.350000000     1.330000000
H    -0.381000000     3.374000000     1.691000000
C    -0.675000000     1.339000000     2.238000000
C    -0.886000000     1.584000000     3.685000000
O    -1.076000000     2.721000000     4.035000000
O    -0.656000000     0.698000000     4.504000000
O    -3.153000000     3.944000000     5.702000000
H    -2.617000000     3.950000000     4.909000000
H    -2.996000000     4.798000000     6.105000000
O     1.810000000     5.292000000     7.114000000
H     2.515000000     4.853000000     6.637000000
H     1.043000000     4.738000000     6.971000000
O    -5.473000000     3.238000000     6.838000000
H    -5.331000000     2.328000000     7.096000000
H    -4.741000000     3.439000000     6.255000000
O     2.037000000     0.644000000     4.877000000
H     1.113000000     0.640000000     5.126000000
H     2.049000000     1.046000000     4.008000000
O     2.567000000     6.980000000     2.627000000
H     2.177000000     7.217000000     3.469000000
H     2.365000000     6.050000000     2.523000000
O     3.779000000     4.206000000     5.749000000
H     4.497000000     4.254000000     5.118000000
H     3.933000000     3.390000000     6.225000000
O    -0.869000000     5.046000000     8.690000000
H     0.006000000     5.311000000     8.974000000
H    -0.712000000     4.441000000     7.965000000
O    -1.306000000     8.240000000     3.901000000
H    -1.074000000     7.320000000     4.024000000
H    -2.231000000     8.288000000     4.140000000
O    -0.586000000     5.273000000     3.750000000
H    -0.960000000     4.397000000     3.846000000
H     0.318000000     5.118000000     3.474000000
O     2.451000000     1.595000000     2.056000000
H     1.770000000     1.779000000     1.409000000
H     2.706000000     0.689000000     1.885000000
O    -0.310000000    -0.152000000     7.202000000
H    -0.795000000    -0.974000000     7.279000000
H    -0.393000000     0.089000000     6.280000000
O    -2.765000000     0.749000000     8.820000000
H    -2.684000000     1.557000000     9.327000000
H    -2.778000000     1.038000000     7.908000000
O    -2.374000000     1.537000000     6.358000000
H    -2.670000000     2.434000000     6.209000000
H    -1.835000000     1.332000000     5.594000000
O     4.152000000     1.608000000     6.338000000
H     4.199000000     1.171000000     7.188000000
H     3.459000000     1.145000000     5.868000000
O     1.293000000    -1.394000000     8.890000000
H     2.146000000    -0.969000000     8.795000000
H     0.766000000    -1.038000000     8.175000000
O    -0.183000000     3.243000000     6.691000000
H    -0.478000000     3.256000000     5.780000000
H    -0.733000000     2.582000000     7.111000000
O     1.860000000     4.233000000     3.160000000
H     2.713000000     4.096000000     3.572000000
H     1.648000000     3.389000000     2.762000000
O     0.382000000     1.508000000     9.794000000
H     0.065000000     0.941000000    10.498000000
H     0.362000000     0.954000000     9.014000000
O    -2.266000000     6.348000000     6.270000000
H    -1.412000000     6.491000000     6.678000000
H    -2.704000000     7.197000000     6.327000000
