215
-1471.71987
C     2.673000000     4.128000000    -2.565000000
H     1.675000000     4.230000000    -2.984000000
C     3.310000000     2.907000000    -2.544000000
C     4.491000000     2.749000000    -1.844000000
H     5.002000000     1.789000000    -1.866000000
C     2.579000000     1.706000000    -3.133000000
O     1.787000000     2.024000000    -4.370000000
H     1.876000000     1.247000000    -2.422000000
O     3.503000000     0.740000000    -3.552000000
C     3.071000000    -0.569000000    -3.338000000
C     3.567000000    -1.084000000    -2.104000000
H     4.168000000    -0.457000000    -1.451000000
C     3.203000000    -2.386000000    -1.770000000
O     3.617000000    -2.817000000    -0.497000000
C     2.444000000    -3.233000000    -2.633000000
C     1.936000000    -4.612000000    -2.175000000
H     1.664000000    -5.220000000    -3.041000000
C     0.847000000    -4.689000000    -1.176000000
C    -0.494000000    -4.851000000    -1.648000000
H    -0.622000000    -4.845000000    -2.728000000
H     2.779000000    -5.124000000    -1.707000000
C     2.022000000    -2.684000000    -3.854000000
H     1.380000000    -3.256000000    -4.519000000
C     2.249000000    -1.340000000    -4.117000000
C     1.632000000    -0.644000000    -5.357000000
H     1.327000000    -1.368000000    -6.116000000
H     2.305000000     0.043000000    -5.874000000
C     0.351000000     0.173000000    -4.980000000
C    -0.880000000    -0.475000000    -4.835000000
H    -1.052000000    -1.479000000    -5.214000000
C     0.494000000     1.472000000    -4.447000000
C    -0.565000000     2.169000000    -3.983000000
H    -0.469000000     3.163000000    -3.556000000
C    -1.818000000     1.482000000    -3.849000000
O    -2.814000000     2.107000000    -3.183000000
C    -3.188000000     1.739000000    -1.852000000
C    -3.364000000     2.986000000    -0.965000000
C    -3.976000000     2.810000000     0.298000000
H    -4.405000000     1.847000000     0.563000000
C    -2.727000000     4.262000000    -1.286000000
H    -2.252000000     4.473000000    -2.241000000
O    -4.313000000     0.872000000    -1.923000000
H    -2.394000000     1.078000000    -1.476000000
C    -1.953000000     0.117000000    -4.252000000
C    -3.361000000    -0.541000000    -4.274000000
H    -3.379000000    -1.363000000    -4.992000000
H    -4.200000000     0.109000000    -4.529000000
C    -3.688000000    -1.204000000    -2.935000000
C    -3.378000000    -2.572000000    -2.751000000
H    -2.936000000    -3.181000000    -3.535000000
C    -4.186000000    -0.489000000    -1.837000000
C    -4.404000000    -1.123000000    -0.643000000
H    -4.879000000    -0.602000000     0.184000000
C    -4.070000000    -2.440000000    -0.434000000
O    -4.075000000    -3.065000000     0.768000000
C    -2.887000000    -3.181000000     1.562000000
C    -3.227000000    -2.699000000     3.032000000
C    -4.274000000    -1.818000000     3.363000000
H    -4.787000000    -1.340000000     2.533000000
C    -2.387000000    -3.122000000     4.042000000
H    -1.695000000    -3.895000000     3.717000000
O    -2.349000000    -4.517000000     1.547000000
H    -2.103000000    -2.475000000     1.252000000
C    -3.515000000    -3.213000000    -1.517000000
C    -3.049000000    -4.707000000    -1.256000000
H    -3.049000000    -5.231000000    -2.214000000
H    -3.765000000    -5.307000000    -0.690000000
C    -1.571000000    -4.790000000    -0.737000000
C    -1.335000000    -4.686000000     0.665000000
C    -0.024000000    -4.489000000     1.070000000
H     0.192000000    -4.408000000     2.132000000
C     1.029000000    -4.549000000     0.193000000
O     2.269000000    -4.197000000     0.648000000
C     2.709000000    -2.855000000     0.601000000
H     1.900000000    -2.147000000     0.369000000
C     3.480000000    -2.326000000     1.787000000
C     4.424000000    -1.306000000     1.661000000
H     4.779000000    -0.959000000     0.694000000
C     2.877000000    -2.575000000     2.989000000
H     2.010000000    -3.225000000     2.905000000
C     3.314000000    -1.915000000     4.155000000
O     2.695000000    -2.106000000     5.404000000
C     4.397000000    -1.028000000     4.095000000
H     4.797000000    -0.581000000     5.001000000
C     4.929000000    -0.682000000     2.813000000
O     5.969000000     0.223000000     2.751000000
C     6.521000000     0.741000000     1.590000000
C     6.171000000     2.052000000     1.126000000
H     5.505000000     2.703000000     1.685000000
C     7.423000000    -0.015000000     0.841000000
H     7.650000000    -0.987000000     1.272000000
C     8.081000000     0.495000000    -0.256000000
H     8.963000000    -0.003000000    -0.651000000
C     7.741000000     1.799000000    -0.698000000
H     8.204000000     2.254000000    -1.570000000
C     6.719000000     2.509000000    -0.057000000
O     6.316000000     3.683000000    -0.643000000
C     5.107000000     3.787000000    -1.256000000
C     4.488000000     5.018000000    -1.229000000
H     4.829000000     5.913000000    -0.714000000
C     3.226000000     5.226000000    -1.847000000
O     2.541000000     6.381000000    -1.544000000
C     1.300000000     6.660000000    -2.021000000
C     0.202000000     6.276000000    -1.221000000
H     0.477000000     5.903000000    -0.237000000
C     1.121000000     7.406000000    -3.162000000
H     1.910000000     7.714000000    -3.843000000
C    -0.146000000     7.714000000    -3.516000000
H    -0.315000000     8.261000000    -4.440000000
C    -1.238000000     7.511000000    -2.660000000
H    -2.232000000     7.877000000    -2.900000000
C    -1.082000000     6.683000000    -1.542000000
O    -2.189000000     6.507000000    -0.756000000
C    -2.723000000     5.269000000    -0.349000000
C    -3.405000000     5.106000000     0.881000000
H    -3.460000000     5.881000000     1.642000000
C    -4.040000000     3.913000000     1.163000000
O    -4.633000000     3.795000000     2.346000000
C    -5.417000000     2.701000000     2.693000000
C    -4.979000000     1.818000000     3.654000000
H    -3.973000000     1.899000000     4.059000000
C    -6.678000000     2.493000000     2.106000000
H    -7.088000000     3.178000000     1.369000000
C    -7.418000000     1.324000000     2.442000000
H    -8.388000000     1.248000000     1.958000000
C    -6.949000000     0.469000000     3.452000000
H    -7.557000000    -0.386000000     3.739000000
C    -5.732000000     0.717000000     4.094000000
O    -5.244000000    -0.225000000     4.983000000
C    -4.363000000    -1.265000000     4.656000000
C    -3.633000000    -1.865000000     5.719000000
H    -3.621000000    -1.588000000     6.770000000
C    -2.633000000    -2.774000000     5.410000000
O    -1.784000000    -3.324000000     6.362000000
C    -0.475000000    -3.686000000     6.113000000
C    -0.201000000    -5.001000000     5.935000000
H    -0.996000000    -5.740000000     5.988000000
C     1.105000000    -5.391000000     5.736000000
H     1.325000000    -6.447000000     5.596000000
C     2.142000000    -4.467000000     5.617000000
H     3.144000000    -4.766000000     5.318000000
C     1.815000000    -3.053000000     5.622000000
C     0.488000000    -2.753000000     5.943000000
H     0.155000000    -1.738000000     6.146000000
C    -0.658000000     0.300000000     2.303000000
H    -0.839000000    -0.225000000     3.238000000
C    -0.430000000    -0.387000000     1.121000000
H    -0.367000000    -1.472000000     1.111000000
C    -0.272000000     0.283000000    -0.082000000
H    -0.212000000    -0.277000000    -0.989000000
C    -0.262000000     1.714000000    -0.060000000
H    -0.074000000     2.211000000    -1.008000000
C    -0.416000000     2.422000000     1.089000000
H    -0.293000000     3.501000000     1.121000000
C    -0.681000000     1.764000000     2.297000000
C    -0.990000000     2.575000000     3.528000000
O    -0.980000000     3.797000000     3.533000000
O    -0.964000000     1.940000000     4.574000000
O    -3.453000000     5.883000000     4.544000000
H    -3.389000000     5.267000000     3.813000000
H    -4.316000000     6.284000000     4.444000000
O     2.748000000     5.850000000     5.201000000
H     1.941000000     5.395000000     5.439000000
H     2.985000000     6.344000000     5.986000000
O    -6.002000000     3.085000000     6.395000000
H    -5.122000000     2.972000000     6.036000000
H    -6.446000000     3.654000000     5.767000000
O     1.526000000     1.441000000     5.434000000
H     0.588000000     1.280000000     5.333000000
H     1.678000000     2.265000000     4.971000000
O     4.590000000     2.280000000     5.165000000
H     3.976000000     1.728000000     5.649000000
H     4.177000000     2.407000000     4.312000000
O    -0.907000000     7.296000000     4.593000000
H    -0.468000000     7.024000000     3.787000000
H    -1.831000000     7.095000000     4.441000000
O    -0.391000000     5.890000000     2.287000000
H    -0.744000000     5.099000000     2.694000000
H     0.527000000     5.680000000     2.114000000
O     3.142000000     2.879000000     2.287000000
H     2.655000000     2.332000000     1.670000000
H     2.782000000     3.757000000     2.163000000
O    -4.916000000     5.627000000     7.335000000
H    -5.294000000     4.816000000     6.995000000
H    -5.498000000     5.882000000     8.050000000
O    -1.253000000     1.187000000     7.135000000
H    -2.195000000     1.351000000     7.178000000
H    -1.005000000     1.448000000     6.248000000
O    -4.055000000     1.008000000     7.841000000
H    -4.503000000     0.894000000     7.003000000
H    -4.762000000     1.054000000     8.485000000
O    -3.050000000     3.690000000     6.080000000
H    -3.157000000     4.582000000     5.750000000
H    -2.221000000     3.393000000     5.705000000
O     3.587000000     0.525000000     7.223000000
H     3.399000000     0.221000000     8.111000000
H     2.734000000     0.539000000     6.788000000
O    -0.772000000     0.427000000    10.067000000
H    -0.836000000     0.905000000     9.240000000
H     0.051000000     0.726000000    10.454000000
O     0.239000000     4.869000000     5.615000000
H    -0.202000000     5.718000000     5.575000000
H    -0.163000000     4.357000000     4.913000000
O     2.345000000     5.510000000     2.642000000
H     3.057000000     5.942000000     2.171000000
H     2.557000000     5.637000000     3.566000000
O     0.169000000     3.895000000     8.340000000
H     0.146000000     2.984000000     8.047000000
H     0.092000000     4.407000000     7.535000000
O    -2.899000000     7.585000000     7.164000000
H    -2.508000000     7.161000000     6.401000000
H    -3.720000000     7.115000000     7.305000000
O    -2.253000000     8.455000000     1.828000000
H    -2.677000000     8.345000000     0.978000000
H    -1.703000000     7.678000000     1.924000000
