215
-1441.59154
C     2.001000000     4.365000000    -2.404000000
H     1.120000000     4.367000000    -3.040000000
C     2.831000000     3.251000000    -2.367000000
C     3.977000000     3.238000000    -1.514000000
H     4.617000000     2.360000000    -1.517000000
C     2.495000000     1.922000000    -3.007000000
O     1.649000000     2.205000000    -4.195000000
H     1.898000000     1.298000000    -2.325000000
O     3.584000000     1.068000000    -3.423000000
C     3.530000000    -0.257000000    -3.092000000
C     4.131000000    -0.727000000    -1.892000000
H     4.740000000    -0.140000000    -1.209000000
C     3.900000000    -2.025000000    -1.501000000
O     4.399000000    -2.434000000    -0.245000000
C     3.162000000    -2.906000000    -2.327000000
C     2.849000000    -4.339000000    -1.852000000
H     2.749000000    -5.086000000    -2.643000000
C     1.695000000    -4.421000000    -0.976000000
C     0.422000000    -4.657000000    -1.563000000
H     0.284000000    -4.792000000    -2.633000000
H     3.737000000    -4.571000000    -1.260000000
C     2.614000000    -2.437000000    -3.490000000
H     1.973000000    -3.145000000    -4.009000000
C     2.792000000    -1.086000000    -3.846000000
C     2.092000000    -0.566000000    -5.096000000
H     1.902000000    -1.347000000    -5.835000000
H     2.683000000     0.186000000    -5.623000000
C     0.755000000     0.010000000    -4.741000000
C    -0.388000000    -0.816000000    -4.744000000
H    -0.272000000    -1.890000000    -4.866000000
C     0.619000000     1.338000000    -4.355000000
C    -0.622000000     1.854000000    -4.054000000
H    -0.641000000     2.873000000    -3.675000000
C    -1.776000000     1.071000000    -4.052000000
O    -2.953000000     1.582000000    -3.560000000
C    -3.501000000     1.214000000    -2.235000000
C    -4.015000000     2.407000000    -1.369000000
C    -4.975000000     2.185000000    -0.370000000
H    -5.696000000     1.372000000    -0.376000000
C    -3.241000000     3.520000000    -1.410000000
H    -2.349000000     3.640000000    -2.019000000
O    -4.388000000     0.161000000    -2.314000000
H    -2.729000000     0.826000000    -1.554000000
C    -1.625000000    -0.264000000    -4.398000000
C    -2.842000000    -1.144000000    -4.538000000
H    -2.725000000    -1.861000000    -5.354000000
H    -3.656000000    -0.468000000    -4.806000000
C    -3.159000000    -1.833000000    -3.207000000
C    -2.632000000    -3.067000000    -2.979000000
H    -2.152000000    -3.620000000    -3.782000000
C    -3.825000000    -1.130000000    -2.181000000
C    -4.099000000    -1.720000000    -0.992000000
H    -4.526000000    -1.169000000    -0.158000000
C    -3.610000000    -3.059000000    -0.752000000
O    -3.670000000    -3.631000000     0.545000000
C    -2.502000000    -3.399000000     1.390000000
C    -2.885000000    -2.800000000     2.775000000
C    -4.083000000    -2.200000000     2.918000000
H    -4.814000000    -2.221000000     2.114000000
C    -1.966000000    -2.941000000     3.840000000
H    -1.043000000    -3.516000000     3.837000000
O    -1.650000000    -4.508000000     1.483000000
H    -1.956000000    -2.513000000     1.032000000
C    -2.715000000    -3.629000000    -1.697000000
C    -2.042000000    -4.997000000    -1.348000000
H    -1.862000000    -5.422000000    -2.338000000
H    -2.624000000    -5.722000000    -0.774000000
C    -0.680000000    -4.695000000    -0.685000000
C    -0.528000000    -4.558000000     0.679000000
C     0.763000000    -4.349000000     1.259000000
H     0.864000000    -4.156000000     2.324000000
C     1.826000000    -4.210000000     0.413000000
O     3.070000000    -3.886000000     0.943000000
C     3.504000000    -2.466000000     0.840000000
H     2.680000000    -1.810000000     0.523000000
C     4.148000000    -1.913000000     2.112000000
C     4.853000000    -0.737000000     2.080000000
H     5.116000000    -0.277000000     1.131000000
C     3.564000000    -2.251000000     3.326000000
H     3.008000000    -3.182000000     3.400000000
C     3.946000000    -1.605000000     4.482000000
O     3.559000000    -1.982000000     5.726000000
C     4.782000000    -0.481000000     4.451000000
H     4.954000000     0.111000000     5.346000000
C     5.292000000    -0.023000000     3.249000000
O     5.890000000     1.159000000     3.194000000
C     6.474000000     1.765000000     2.125000000
C     5.854000000     2.999000000     1.709000000
H     4.965000000     3.373000000     2.210000000
C     7.370000000     1.056000000     1.303000000
H     7.794000000     0.128000000     1.678000000
C     7.757000000     1.600000000     0.042000000
H     8.393000000     1.067000000    -0.660000000
C     7.107000000     2.779000000    -0.374000000
H     7.311000000     3.137000000    -1.380000000
C     6.141000000     3.401000000     0.433000000
O     5.457000000     4.510000000    -0.093000000
C     4.266000000     4.398000000    -0.779000000
C     3.411000000     5.515000000    -0.790000000
H     3.609000000     6.445000000    -0.262000000
C     2.375000000     5.480000000    -1.673000000
O     1.619000000     6.631000000    -1.796000000
C     0.280000000     6.693000000    -2.148000000
C    -0.660000000     5.991000000    -1.369000000
H    -0.227000000     5.169000000    -0.805000000
C    -0.199000000     7.655000000    -2.995000000
H     0.489000000     8.283000000    -3.556000000
C    -1.563000000     7.904000000    -3.141000000
H    -1.826000000     8.681000000    -3.854000000
C    -2.492000000     7.124000000    -2.498000000
H    -3.531000000     7.440000000    -2.532000000
C    -2.022000000     6.212000000    -1.569000000
O    -2.872000000     5.748000000    -0.597000000
C    -3.518000000     4.515000000    -0.529000000
C    -4.525000000     4.392000000     0.457000000
H    -4.461000000     5.090000000     1.287000000
C    -5.172000000     3.150000000     0.583000000
O    -6.129000000     2.890000000     1.574000000
C    -6.518000000     1.644000000     1.909000000
C    -5.861000000     0.865000000     2.891000000
H    -4.929000000     1.180000000     3.354000000
C    -7.692000000     1.139000000     1.438000000
H    -8.152000000     1.627000000     0.582000000
C    -8.282000000    -0.042000000     1.964000000
H    -9.206000000    -0.473000000     1.588000000
C    -7.539000000    -0.707000000     2.903000000
H    -8.004000000    -1.647000000     3.188000000
C    -6.296000000    -0.377000000     3.357000000
O    -5.633000000    -0.958000000     4.372000000
C    -4.412000000    -1.588000000     4.117000000
C    -3.437000000    -1.589000000     5.154000000
H    -3.568000000    -1.073000000     6.102000000
C    -2.263000000    -2.322000000     5.029000000
O    -1.284000000    -2.198000000     5.968000000
C    -0.051000000    -2.868000000     5.958000000
C     0.021000000    -4.268000000     5.928000000
H    -0.885000000    -4.865000000     5.987000000
C     1.279000000    -4.886000000     5.946000000
H     1.317000000    -5.967000000     5.841000000
C     2.466000000    -4.105000000     5.906000000
H     3.426000000    -4.546000000     5.650000000
C     2.359000000    -2.652000000     6.004000000
C     1.095000000    -2.094000000     5.994000000
H     0.993000000    -1.012000000     5.963000000
C    -1.634000000     0.583000000     2.949000000
H    -2.098000000     0.004000000     3.743000000
C    -1.016000000    -0.067000000     1.891000000
H    -0.764000000    -1.124000000     1.914000000
C    -0.504000000     0.603000000     0.738000000
H     0.079000000     0.133000000    -0.050000000
C    -0.780000000     1.931000000     0.609000000
H    -0.584000000     2.415000000    -0.344000000
C    -1.542000000     2.611000000     1.561000000
H    -1.908000000     3.621000000     1.395000000
C    -1.872000000     1.942000000     2.768000000
C    -2.638000000     2.718000000     3.857000000
O    -2.949000000     3.866000000     3.757000000
O    -2.905000000     2.229000000     4.935000000
O    -3.542000000     1.474000000     9.980000000
H    -4.195000000     0.784000000    10.098000000
H    -3.577000000     1.680000000     9.046000000
O    -5.176000000     5.071000000     4.986000000
H    -4.447000000     4.553000000     4.646000000
H    -5.903000000     4.879000000     4.392000000
O     2.387000000     2.465000000     3.337000000
H     1.878000000     2.509000000     4.147000000
H     3.239000000     2.124000000     3.608000000
O    -2.161000000     7.400000000     7.268000000
H    -2.711000000     7.138000000     8.007000000
H    -1.833000000     6.575000000     6.910000000
O    -0.233000000     0.302000000     7.858000000
H     0.063000000    -0.112000000     8.669000000
H    -0.793000000    -0.355000000     7.445000000
O    -7.403000000     4.427000000     3.592000000
H    -8.236000000     4.048000000     3.873000000
H    -7.078000000     3.822000000     2.925000000
O    -1.389000000     5.661000000     2.828000000
H    -2.109000000     5.058000000     3.016000000
H    -1.290000000     6.174000000     3.631000000
O    -1.852000000     4.047000000     9.963000000
H    -2.602000000     3.622000000    10.379000000
H    -1.886000000     3.753000000     9.052000000
O     2.511000000     1.107000000     0.624000000
H     3.347000000     1.369000000     1.010000000
H     1.869000000     1.260000000     1.317000000
O    -1.739000000     4.827000000     5.981000000
H    -2.020000000     4.424000000     5.159000000
H    -1.938000000     4.171000000     6.649000000
O    -1.650000000     2.552000000     7.476000000
H    -1.036000000     1.829000000     7.607000000
H    -2.234000000     2.247000000     6.782000000
O    -6.817000000     0.060000000     7.390000000
H    -6.388000000    -0.756000000     7.134000000
H    -6.133000000     0.725000000     7.312000000
O    -4.728000000     1.661000000     6.879000000
H    -5.015000000     2.512000000     7.209000000
H    -4.159000000     1.871000000     6.138000000
O    -0.859000000     7.984000000     1.508000000
H    -1.704000000     8.391000000     1.316000000
H    -1.082000000     7.126000000     1.868000000
O    -3.602000000     7.147000000     4.262000000
H    -3.162000000     7.167000000     5.112000000
H    -4.179000000     6.385000000     4.309000000
O     1.114000000     3.939000000     6.122000000
H     1.742000000     4.387000000     5.555000000
H     0.261000000     4.274000000     5.847000000
O     2.199000000     1.925000000     7.671000000
H     1.888000000     2.719000000     7.238000000
H     1.420000000     1.374000000     7.750000000
O     1.293000000     4.722000000     1.727000000
H     0.379000000     4.848000000     1.981000000
H     1.596000000     3.998000000     2.276000000
O    -6.211000000     6.471000000     7.042000000
H    -5.788000000     6.637000000     7.884000000
H    -5.628000000     5.855000000     6.598000000
