215
-1454.95634
C     2.073000000     4.332000000    -1.855000000
H     1.179000000     4.481000000    -2.454000000
C     2.727000000     3.132000000    -1.925000000
C     3.837000000     3.012000000    -1.091000000
H     4.304000000     2.031000000    -1.048000000
C     2.312000000     1.988000000    -2.868000000
O     1.599000000     2.348000000    -4.002000000
H     1.713000000     1.339000000    -2.211000000
O     3.330000000     1.086000000    -3.265000000
C     3.162000000    -0.312000000    -3.307000000
C     3.618000000    -1.041000000    -2.186000000
H     4.315000000    -0.611000000    -1.473000000
C     3.383000000    -2.373000000    -2.112000000
O     3.807000000    -2.926000000    -0.969000000
C     2.442000000    -3.047000000    -2.981000000
C     1.942000000    -4.465000000    -2.696000000
H     1.665000000    -4.886000000    -3.665000000
C     0.813000000    -4.407000000    -1.657000000
C    -0.503000000    -4.550000000    -2.079000000
H    -0.681000000    -4.773000000    -3.128000000
H     2.748000000    -5.081000000    -2.293000000
C     2.056000000    -2.323000000    -4.106000000
H     1.412000000    -2.769000000    -4.860000000
C     2.277000000    -0.996000000    -4.229000000
C     1.581000000    -0.213000000    -5.300000000
H     1.237000000    -0.859000000    -6.110000000
H     2.186000000     0.583000000    -5.740000000
C     0.301000000     0.501000000    -4.792000000
C    -0.924000000    -0.137000000    -4.897000000
H    -0.942000000    -1.099000000    -5.403000000
C     0.374000000     1.765000000    -4.218000000
C    -0.738000000     2.444000000    -3.879000000
H    -0.762000000     3.396000000    -3.355000000
C    -2.001000000     1.797000000    -3.905000000
O    -2.985000000     2.402000000    -3.195000000
C    -3.319000000     1.892000000    -1.878000000
C    -3.629000000     3.061000000    -0.934000000
C    -4.130000000     2.838000000     0.336000000
H    -4.447000000     1.851000000     0.660000000
C    -3.354000000     4.323000000    -1.346000000
H    -2.892000000     4.518000000    -2.311000000
O    -4.433000000     0.980000000    -1.954000000
H    -2.520000000     1.245000000    -1.485000000
C    -2.068000000     0.449000000    -4.366000000
C    -3.403000000    -0.277000000    -4.347000000
H    -3.477000000    -1.112000000    -5.047000000
H    -4.242000000     0.393000000    -4.549000000
C    -3.579000000    -0.991000000    -2.955000000
C    -3.289000000    -2.327000000    -2.804000000
H    -2.833000000    -2.805000000    -3.668000000
C    -4.136000000    -0.376000000    -1.848000000
C    -4.357000000    -1.072000000    -0.685000000
H    -4.783000000    -0.511000000     0.142000000
C    -3.982000000    -2.397000000    -0.481000000
O    -4.000000000    -2.811000000     0.844000000
C    -2.746000000    -3.157000000     1.375000000
C    -2.654000000    -2.876000000     2.859000000
C    -3.333000000    -1.731000000     3.316000000
H    -3.948000000    -1.074000000     2.706000000
C    -2.101000000    -3.696000000     3.779000000
H    -1.781000000    -4.685000000     3.459000000
O    -2.356000000    -4.495000000     1.072000000
H    -2.023000000    -2.447000000     0.947000000
C    -3.407000000    -3.055000000    -1.580000000
C    -2.978000000    -4.501000000    -1.582000000
H    -3.062000000    -4.940000000    -2.578000000
H    -3.622000000    -5.041000000    -0.885000000
C    -1.529000000    -4.542000000    -1.168000000
C    -1.304000000    -4.642000000     0.215000000
C     0.036000000    -4.551000000     0.683000000
H     0.203000000    -4.618000000     1.755000000
C     1.080000000    -4.411000000    -0.239000000
O     2.323000000    -4.250000000     0.338000000
C     2.896000000    -2.921000000     0.144000000
H     2.126000000    -2.139000000     0.072000000
C     3.611000000    -2.542000000     1.443000000
C     4.732000000    -1.668000000     1.332000000
H     5.080000000    -1.362000000     0.348000000
C     3.134000000    -2.912000000     2.681000000
H     2.185000000    -3.439000000     2.730000000
C     3.714000000    -2.452000000     3.840000000
O     3.217000000    -2.880000000     5.065000000
C     4.810000000    -1.571000000     3.757000000
H     5.337000000    -1.174000000     4.620000000
C     5.312000000    -1.176000000     2.522000000
O     6.372000000    -0.357000000     2.442000000
C     6.664000000     0.511000000     1.497000000
C     5.830000000     1.690000000     1.459000000
H     4.926000000     1.771000000     2.057000000
C     7.705000000     0.434000000     0.612000000
H     8.373000000    -0.421000000     0.677000000
C     8.059000000     1.502000000    -0.249000000
H     8.903000000     1.441000000    -0.932000000
C     7.233000000     2.637000000    -0.301000000
H     7.368000000     3.352000000    -1.109000000
C     6.198000000     2.735000000     0.630000000
O     5.404000000     3.872000000     0.575000000
C     4.249000000     4.019000000    -0.231000000
C     3.674000000     5.238000000    -0.312000000
H     4.002000000     6.070000000     0.305000000
C     2.507000000     5.398000000    -1.084000000
O     1.937000000     6.584000000    -1.165000000
C     0.709000000     6.799000000    -1.741000000
C    -0.526000000     6.544000000    -0.938000000
H    -0.420000000     6.080000000     0.040000000
C     0.592000000     7.462000000    -2.978000000
H     1.383000000     7.717000000    -3.678000000
C    -0.677000000     7.796000000    -3.359000000
H    -0.646000000     8.245000000    -4.348000000
C    -1.808000000     7.573000000    -2.616000000
H    -2.766000000     7.977000000    -2.932000000
C    -1.763000000     6.874000000    -1.400000000
O    -2.933000000     6.621000000    -0.734000000
C    -3.433000000     5.377000000    -0.413000000
C    -4.032000000     5.207000000     0.835000000
H    -4.205000000     6.021000000     1.534000000
C    -4.295000000     3.885000000     1.260000000
O    -4.877000000     3.728000000     2.522000000
C    -5.336000000     2.583000000     3.067000000
C    -4.545000000     1.762000000     3.926000000
H    -3.577000000     2.196000000     4.164000000
C    -6.609000000     2.112000000     2.771000000
H    -7.239000000     2.695000000     2.105000000
C    -7.059000000     0.905000000     3.158000000
H    -7.977000000     0.451000000     2.794000000
C    -6.210000000     0.064000000     3.875000000
H    -6.554000000    -0.910000000     4.214000000
C    -4.946000000     0.535000000     4.367000000
O    -4.105000000    -0.306000000     5.097000000
C    -3.202000000    -1.318000000     4.619000000
C    -2.564000000    -2.138000000     5.563000000
H    -2.571000000    -1.879000000     6.619000000
C    -2.034000000    -3.359000000     5.112000000
O    -1.366000000    -4.209000000     5.976000000
C    -0.046000000    -4.571000000     5.707000000
C     0.234000000    -5.911000000     5.700000000
H    -0.528000000    -6.685000000     5.742000000
C     1.613000000    -6.240000000     5.576000000
H     1.922000000    -7.280000000     5.517000000
C     2.622000000    -5.236000000     5.462000000
H     3.683000000    -5.431000000     5.329000000
C     2.241000000    -3.895000000     5.377000000
C     0.932000000    -3.558000000     5.529000000
H     0.605000000    -2.522000000     5.568000000
C    -0.495000000     0.382000000     2.446000000
H    -0.602000000    -0.263000000     3.314000000
C    -0.297000000    -0.264000000     1.187000000
H    -0.179000000    -1.342000000     1.117000000
C    -0.146000000     0.548000000     0.055000000
H     0.144000000     0.121000000    -0.912000000
C    -0.332000000     1.949000000     0.214000000
H    -0.244000000     2.600000000    -0.652000000
C    -0.689000000     2.493000000     1.431000000
H    -0.726000000     3.579000000     1.431000000
C    -0.707000000     1.722000000     2.576000000
C    -0.832000000     2.397000000     3.931000000
O    -1.174000000     3.577000000     3.962000000
O    -0.417000000     1.782000000     4.915000000
O    -2.984000000     5.525000000     3.676000000
H    -2.321000000     4.836000000     3.721000000
H    -3.657000000     5.171000000     3.094000000
O     2.093000000     6.579000000     6.965000000
H     2.978000000     6.624000000     6.603000000
H     1.853000000     5.655000000     6.896000000
O    -5.858000000     5.147000000     5.840000000
H    -5.649000000     5.692000000     5.080000000
H    -6.812000000     5.072000000     5.826000000
O     2.303000000     0.838000000     4.682000000
H     1.471000000     1.310000000     4.681000000
H     2.884000000     1.378000000     5.217000000
O     2.858000000     7.531000000     2.352000000
H     2.861000000     6.593000000     2.544000000
H     2.511000000     7.938000000     3.146000000
O     0.421000000     5.706000000     3.482000000
H    -0.254000000     5.035000000     3.385000000
H     1.235000000     5.214000000     3.589000000
O     1.528000000     8.262000000     4.561000000
H     1.534000000     7.676000000     5.318000000
H     0.665000000     8.136000000     4.167000000
O    -0.521000000     5.271000000     8.669000000
H    -1.288000000     5.831000000     8.790000000
H    -0.494000000     5.103000000     7.727000000
O     2.435000000     2.030000000     2.133000000
H     1.584000000     1.946000000     1.703000000
H     2.366000000     1.476000000     2.911000000
O    -3.367000000     4.165000000     6.483000000
H    -4.253000000     4.321000000     6.156000000
H    -2.796000000     4.416000000     5.756000000
O     0.100000000     0.029000000     6.913000000
H    -0.832000000     0.240000000     6.972000000
H     0.392000000     0.459000000     6.109000000
O    -4.733000000     0.585000000     8.439000000
H    -4.216000000    -0.178000000     8.698000000
H    -4.162000000     1.072000000     7.845000000
O    -2.596000000     1.717000000     6.901000000
H    -2.820000000     2.640000000     6.785000000
H    -1.862000000     1.571000000     6.304000000
O    -1.734000000     8.312000000     4.004000000
H    -2.342000000     9.049000000     4.060000000
H    -2.288000000     7.537000000     4.099000000
O    -3.108000000     7.347000000     6.362000000
H    -2.962000000     7.127000000     7.282000000
H    -3.419000000     6.532000000     5.967000000
O     0.606000000     4.150000000     6.082000000
H     0.144000000     4.230000000     5.248000000
H     0.573000000     3.215000000     6.285000000
O     0.315000000     2.841000000     9.621000000
H    -0.131000000     3.624000000     9.298000000
H    -0.372000000     2.339000000    10.060000000
O     2.357000000     1.678000000     7.942000000
H     1.810000000     1.874000000     8.702000000
H     1.962000000     0.894000000     7.560000000
O     2.789000000     4.554000000     3.147000000
H     2.775000000     3.691000000     2.732000000
H     3.692000000     4.662000000     3.445000000
