215
-1448.35519
C     0.967000000     4.999000000    -1.323000000
H     0.106000000     4.874000000    -1.974000000
C     2.076000000     4.240000000    -1.338000000
C     3.195000000     4.439000000    -0.505000000
H     4.078000000     3.806000000    -0.537000000
C     2.119000000     2.976000000    -2.282000000
O     1.522000000     3.402000000    -3.591000000
H     1.561000000     2.134000000    -1.849000000
O     3.535000000     2.585000000    -2.456000000
C     3.718000000     1.199000000    -2.499000000
C     4.249000000     0.586000000    -1.379000000
H     4.453000000     1.191000000    -0.499000000
C     4.340000000    -0.838000000    -1.322000000
O     4.745000000    -1.383000000    -0.123000000
C     3.841000000    -1.587000000    -2.383000000
C     3.802000000    -3.113000000    -2.358000000
H     3.740000000    -3.443000000    -3.397000000
C     2.715000000    -3.687000000    -1.540000000
C     1.655000000    -4.136000000    -2.278000000
H     1.791000000    -4.113000000    -3.356000000
H     4.693000000    -3.508000000    -1.866000000
C     3.230000000    -0.933000000    -3.482000000
H     2.798000000    -1.541000000    -4.273000000
C     3.311000000     0.433000000    -3.579000000
C     2.647000000     1.045000000    -4.807000000
H     2.781000000     0.323000000    -5.615000000
H     3.235000000     1.899000000    -5.150000000
C     1.137000000     1.304000000    -4.640000000
C     0.315000000     0.224000000    -4.972000000
H     0.697000000    -0.741000000    -5.296000000
C     0.621000000     2.536000000    -4.053000000
C    -0.714000000     2.574000000    -3.733000000
H    -1.102000000     3.371000000    -3.104000000
C    -1.576000000     1.551000000    -4.142000000
O    -2.932000000     1.589000000    -3.873000000
C    -3.305000000     0.836000000    -2.702000000
C    -4.010000000     1.658000000    -1.595000000
C    -4.692000000     1.055000000    -0.519000000
H    -4.846000000    -0.020000000    -0.569000000
C    -3.890000000     3.035000000    -1.658000000
H    -3.536000000     3.457000000    -2.596000000
O    -4.057000000    -0.253000000    -3.173000000
H    -2.350000000     0.508000000    -2.265000000
C    -1.079000000     0.386000000    -4.778000000
C    -1.957000000    -0.753000000    -5.269000000
H    -1.384000000    -1.209000000    -6.079000000
H    -2.874000000    -0.314000000    -5.667000000
C    -2.258000000    -1.699000000    -4.048000000
C    -1.416000000    -2.815000000    -3.835000000
H    -0.549000000    -2.990000000    -4.466000000
C    -3.277000000    -1.430000000    -3.128000000
C    -3.461000000    -2.245000000    -2.028000000
H    -4.209000000    -2.065000000    -1.260000000
C    -2.632000000    -3.363000000    -1.778000000
O    -2.646000000    -4.037000000    -0.572000000
C    -1.549000000    -3.845000000     0.475000000
C    -2.118000000    -3.836000000     1.874000000
C    -3.369000000    -3.396000000     2.101000000
H    -3.993000000    -3.002000000     1.303000000
C    -1.375000000    -4.146000000     3.065000000
H    -0.361000000    -4.519000000     2.948000000
O    -0.691000000    -4.968000000     0.333000000
H    -1.026000000    -2.901000000     0.264000000
C    -1.616000000    -3.648000000    -2.688000000
C    -0.722000000    -4.873000000    -2.521000000
H    -0.377000000    -5.327000000    -3.452000000
H    -1.239000000    -5.639000000    -1.940000000
C     0.462000000    -4.492000000    -1.682000000
C     0.480000000    -4.773000000    -0.298000000
C     1.646000000    -4.581000000     0.423000000
H     1.750000000    -4.645000000     1.503000000
C     2.678000000    -3.910000000    -0.183000000
O     3.685000000    -3.385000000     0.635000000
C     3.697000000    -1.945000000     0.746000000
H     2.700000000    -1.578000000     0.462000000
C     3.833000000    -1.457000000     2.194000000
C     3.968000000    -0.081000000     2.445000000
H     4.169000000     0.671000000     1.685000000
C     3.559000000    -2.266000000     3.292000000
H     3.357000000    -3.328000000     3.178000000
C     3.568000000    -1.745000000     4.620000000
O     3.277000000    -2.523000000     5.716000000
C     3.818000000    -0.426000000     4.857000000
H     3.624000000    -0.162000000     5.893000000
C     3.909000000     0.370000000     3.739000000
O     3.948000000     1.698000000     3.978000000
C     4.762000000     2.668000000     3.284000000
C     4.143000000     3.737000000     2.716000000
H     3.060000000     3.707000000     2.622000000
C     6.175000000     2.483000000     3.204000000
H     6.555000000     1.580000000     3.677000000
C     6.953000000     3.442000000     2.539000000
H     8.038000000     3.407000000     2.601000000
C     6.295000000     4.543000000     1.932000000
H     6.941000000     5.370000000     1.648000000
C     4.886000000     4.693000000     1.987000000
O     4.195000000     5.697000000     1.250000000
C     3.140000000     5.501000000     0.374000000
C     2.044000000     6.321000000     0.411000000
H     1.980000000     7.068000000     1.198000000
C     0.937000000     6.021000000    -0.393000000
O    -0.088000000     6.886000000    -0.290000000
C    -1.258000000     6.755000000    -1.056000000
C    -2.391000000     6.053000000    -0.532000000
H    -2.251000000     5.600000000     0.446000000
C    -1.339000000     7.242000000    -2.347000000
H    -0.459000000     7.650000000    -2.838000000
C    -2.541000000     7.194000000    -3.072000000
H    -2.577000000     7.579000000    -4.088000000
C    -3.683000000     6.618000000    -2.525000000
H    -4.639000000     6.566000000    -3.040000000
C    -3.546000000     5.929000000    -1.294000000
O    -4.588000000     5.265000000    -0.848000000
C    -4.530000000     3.835000000    -0.684000000
C    -5.307000000     3.279000000     0.331000000
H    -6.036000000     3.908000000     0.836000000
C    -5.343000000     1.859000000     0.409000000
O    -6.139000000     1.333000000     1.390000000
C    -6.352000000    -0.014000000     1.556000000
C    -5.555000000    -0.698000000     2.417000000
H    -4.698000000    -0.290000000     2.948000000
C    -7.484000000    -0.561000000     0.911000000
H    -8.106000000     0.067000000     0.278000000
C    -7.861000000    -1.906000000     1.155000000
H    -8.754000000    -2.388000000     0.765000000
C    -7.014000000    -2.616000000     2.033000000
H    -7.250000000    -3.627000000     2.354000000
C    -5.925000000    -2.011000000     2.604000000
O    -5.175000000    -2.706000000     3.535000000
C    -3.895000000    -3.166000000     3.371000000
C    -3.211000000    -3.489000000     4.475000000
H    -3.601000000    -3.429000000     5.488000000
C    -1.944000000    -3.998000000     4.337000000
O    -1.195000000    -4.185000000     5.459000000
C     0.143000000    -4.417000000     5.538000000
C     0.636000000    -5.665000000     5.987000000
H    -0.151000000    -6.352000000     6.285000000
C     1.995000000    -5.858000000     6.266000000
H     2.272000000    -6.855000000     6.597000000
C     2.929000000    -4.776000000     6.021000000
H     3.997000000    -4.954000000     6.123000000
C     2.415000000    -3.562000000     5.723000000
C     1.069000000    -3.381000000     5.358000000
H     0.748000000    -2.356000000     5.194000000
C    -0.785000000    -0.368000000     1.578000000
H    -0.698000000    -1.159000000     2.319000000
C    -0.165000000    -0.597000000     0.339000000
H     0.314000000    -1.541000000     0.093000000
C    -0.241000000     0.341000000    -0.703000000
H     0.306000000     0.178000000    -1.647000000
C    -0.900000000     1.570000000    -0.473000000
H    -1.035000000     2.379000000    -1.187000000
C    -1.514000000     1.764000000     0.749000000
H    -2.120000000     2.665000000     0.788000000
C    -1.487000000     0.799000000     1.791000000
C    -2.144000000     1.163000000     3.114000000
O    -2.317000000     2.360000000     3.382000000
O    -2.333000000     0.345000000     4.003000000
O    -4.185000000     3.954000000     4.444000000
H    -3.580000000     3.432000000     3.917000000
H    -4.749000000     3.309000000     4.871000000
O     1.684000000     5.932000000     6.576000000
H     2.625000000     5.829000000     6.437000000
H     1.301000000     5.830000000     5.705000000
O     0.283000000     1.129000000     8.364000000
H     0.944000000     0.989000000     7.685000000
H    -0.487000000     1.442000000     7.888000000
O    -1.414000000     7.113000000     3.501000000
H    -0.980000000     6.266000000     3.598000000
H    -0.979000000     7.521000000     2.752000000
O    -6.344000000    -4.219000000     5.591000000
H    -5.799000000    -3.895000000     6.308000000
H    -6.514000000    -3.447000000     5.051000000
O    -3.120000000     2.045000000     8.531000000
H    -2.687000000     2.489000000     7.802000000
H    -3.905000000     2.567000000     8.697000000
O    -0.098000000    -1.971000000     7.998000000
H    -0.149000000    -1.433000000     8.788000000
H    -0.505000000    -1.436000000     7.317000000
O    -3.944000000     6.821000000     3.725000000
H    -3.997000000     5.873000000     3.841000000
H    -3.030000000     6.984000000     3.492000000
O    -6.689000000     4.681000000     4.727000000
H    -6.725000000     3.726000000     4.785000000
H    -5.784000000     4.872000000     4.482000000
O     1.159000000     2.706000000     6.146000000
H     2.021000000     2.583000000     6.544000000
H     1.209000000     2.232000000     5.316000000
O    -4.112000000    -0.786000000     7.455000000
H    -4.095000000    -0.267000000     8.260000000
H    -4.547000000    -1.601000000     7.705000000
O    -7.723000000     2.368000000    -2.019000000
H    -6.882000000     2.090000000    -1.657000000
H    -8.081000000     1.580000000    -2.428000000
O    -1.544000000    -0.292000000     6.249000000
H    -2.453000000    -0.452000000     6.502000000
H    -1.601000000     0.059000000     5.360000000
O    -0.720000000     4.624000000     3.768000000
H     0.021000000     4.207000000     4.208000000
H    -1.308000000     3.900000000     3.551000000
O    -6.656000000     2.036000000     4.003000000
H    -7.146000000     1.348000000     3.553000000
H    -5.802000000     1.642000000     4.184000000
O    -2.123000000     4.254000000     6.726000000
H    -2.506000000     3.841000000     5.952000000
H    -2.064000000     5.182000000     6.498000000
O     0.894000000     1.954000000     3.539000000
H     0.428000000     2.416000000     2.842000000
H     0.448000000     1.110000000     3.607000000
O    -4.360000000     1.112000000     5.464000000
H    -4.324000000     0.381000000     6.080000000
H    -3.575000000     1.012000000     4.927000000
O     0.045000000     4.966000000     8.446000000
H     0.702000000     5.001000000     7.751000000
H    -0.568000000     4.288000000     8.162000000
