215
-1456.96314
C     1.952000000     4.941000000    -2.461000000
H     1.213000000     4.984000000    -3.257000000
C     2.639000000     3.770000000    -2.167000000
C     3.461000000     3.660000000    -1.033000000
H     3.910000000     2.701000000    -0.790000000
C     2.217000000     2.420000000    -2.871000000
O     1.393000000     2.581000000    -4.095000000
H     1.587000000     1.816000000    -2.201000000
O     3.392000000     1.732000000    -3.215000000
C     3.363000000     0.364000000    -2.944000000
C     3.989000000    -0.037000000    -1.721000000
H     4.374000000     0.627000000    -0.951000000
C     3.967000000    -1.381000000    -1.419000000
O     4.486000000    -1.836000000    -0.254000000
C     3.370000000    -2.294000000    -2.258000000
C     3.455000000    -3.778000000    -1.992000000
H     3.469000000    -4.307000000    -2.947000000
C     2.193000000    -4.170000000    -1.229000000
C     0.966000000    -4.473000000    -1.860000000
H     0.907000000    -4.560000000    -2.941000000
H     4.392000000    -4.033000000    -1.492000000
C     2.737000000    -1.915000000    -3.475000000
H     2.160000000    -2.619000000    -4.068000000
C     2.666000000    -0.558000000    -3.830000000
C     1.900000000    -0.097000000    -5.136000000
H     1.907000000    -0.956000000    -5.810000000
H     2.498000000     0.589000000    -5.741000000
C     0.491000000     0.459000000    -4.873000000
C    -0.615000000    -0.383000000    -5.098000000
H    -0.473000000    -1.413000000    -5.418000000
C     0.354000000     1.746000000    -4.344000000
C    -0.951000000     2.207000000    -4.057000000
H    -1.077000000     3.160000000    -3.550000000
C    -2.003000000     1.271000000    -4.106000000
O    -3.152000000     1.615000000    -3.541000000
C    -3.406000000     1.082000000    -2.262000000
C    -3.928000000     2.151000000    -1.359000000
C    -4.640000000     1.784000000    -0.204000000
H    -4.762000000     0.727000000     0.020000000
C    -3.497000000     3.496000000    -1.533000000
H    -3.000000000     3.726000000    -2.472000000
O    -4.352000000    -0.041000000    -2.364000000
H    -2.508000000     0.705000000    -1.750000000
C    -1.826000000     0.002000000    -4.591000000
C    -2.967000000    -1.010000000    -4.616000000
H    -2.818000000    -1.686000000    -5.460000000
H    -3.854000000    -0.408000000    -4.823000000
C    -3.082000000    -1.806000000    -3.370000000
C    -2.442000000    -3.052000000    -3.216000000
H    -1.717000000    -3.288000000    -3.990000000
C    -3.803000000    -1.284000000    -2.317000000
C    -4.032000000    -2.048000000    -1.180000000
H    -4.608000000    -1.630000000    -0.359000000
C    -3.380000000    -3.291000000    -1.061000000
O    -3.363000000    -3.859000000     0.174000000
C    -2.247000000    -3.689000000     1.001000000
C    -2.646000000    -3.357000000     2.484000000
C    -3.787000000    -2.623000000     2.757000000
H    -4.315000000    -2.201000000     1.906000000
C    -1.865000000    -3.732000000     3.612000000
H    -1.014000000    -4.407000000     3.562000000
O    -1.330000000    -4.734000000     0.891000000
H    -1.756000000    -2.764000000     0.665000000
C    -2.496000000    -3.774000000    -2.035000000
C    -1.605000000    -4.968000000    -1.772000000
H    -1.405000000    -5.364000000    -2.770000000
H    -2.162000000    -5.702000000    -1.185000000
C    -0.231000000    -4.649000000    -1.169000000
C    -0.206000000    -4.547000000     0.184000000
C     0.971000000    -4.286000000     0.856000000
H     0.844000000    -4.109000000     1.921000000
C     2.154000000    -3.936000000     0.151000000
O     3.247000000    -3.533000000     0.878000000
C     3.578000000    -2.097000000     0.835000000
H     2.673000000    -1.510000000     0.622000000
C     4.010000000    -1.573000000     2.144000000
C     4.948000000    -0.568000000     2.291000000
H     5.494000000    -0.175000000     1.437000000
C     3.326000000    -1.936000000     3.364000000
H     2.494000000    -2.625000000     3.247000000
C     3.633000000    -1.439000000     4.591000000
O     2.803000000    -1.769000000     5.627000000
C     4.662000000    -0.481000000     4.685000000
H     4.773000000     0.004000000     5.651000000
C     5.177000000     0.048000000     3.531000000
O     6.042000000     1.089000000     3.633000000
C     6.219000000     1.936000000     2.591000000
C     5.235000000     2.825000000     2.386000000
H     4.377000000     2.875000000     3.052000000
C     7.365000000     1.968000000     1.823000000
H     8.216000000     1.325000000     2.036000000
C     7.436000000     2.756000000     0.668000000
H     8.181000000     2.685000000    -0.120000000
C     6.368000000     3.639000000     0.460000000
H     6.332000000     4.388000000    -0.327000000
C     5.274000000     3.714000000     1.289000000
O     4.313000000     4.668000000     1.029000000
C     3.532000000     4.727000000    -0.107000000
C     2.933000000     5.929000000    -0.460000000
H     2.849000000     6.852000000     0.109000000
C     2.151000000     6.027000000    -1.644000000
O     1.305000000     7.181000000    -1.653000000
C     0.021000000     6.998000000    -1.965000000
C    -0.824000000     6.435000000    -1.074000000
H    -0.439000000     6.235000000    -0.077000000
C    -0.469000000     7.421000000    -3.200000000
H     0.199000000     7.783000000    -3.978000000
C    -1.770000000     7.057000000    -3.545000000
H    -2.187000000     7.198000000    -4.539000000
C    -2.629000000     6.508000000    -2.631000000
H    -3.682000000     6.394000000    -2.874000000
C    -2.160000000     6.110000000    -1.383000000
O    -3.077000000     5.680000000    -0.480000000
C    -3.735000000     4.420000000    -0.512000000
C    -4.454000000     4.027000000     0.632000000
H    -4.669000000     4.723000000     1.440000000
C    -4.860000000     2.695000000     0.778000000
O    -5.457000000     2.321000000     1.982000000
C    -6.089000000     1.108000000     2.155000000
C    -5.519000000     0.247000000     3.075000000
H    -4.662000000     0.710000000     3.556000000
C    -7.274000000     0.676000000     1.487000000
H    -7.757000000     1.139000000     0.630000000
C    -7.777000000    -0.636000000     1.732000000
H    -8.657000000    -0.977000000     1.194000000
C    -7.218000000    -1.457000000     2.718000000
H    -7.623000000    -2.416000000     3.028000000
C    -6.038000000    -0.996000000     3.310000000
O    -5.443000000    -1.680000000     4.316000000
C    -4.216000000    -2.352000000     4.050000000
C    -3.443000000    -2.728000000     5.148000000
H    -3.815000000    -2.382000000     6.109000000
C    -2.223000000    -3.392000000     4.916000000
O    -1.514000000    -4.002000000     5.988000000
C    -0.109000000    -3.986000000     5.899000000
C     0.553000000    -5.227000000     5.742000000
H     0.121000000    -6.212000000     5.900000000
C     1.947000000    -5.326000000     5.595000000
H     2.464000000    -6.282000000     5.622000000
C     2.700000000    -4.186000000     5.638000000
H     3.779000000    -4.227000000     5.512000000
C     2.057000000    -2.926000000     5.658000000
C     0.668000000    -2.853000000     5.809000000
H     0.312000000    -1.826000000     5.811000000
C    -0.778000000     0.068000000     2.210000000
H    -0.855000000    -0.469000000     3.152000000
C    -0.090000000    -0.509000000     1.059000000
H     0.313000000    -1.518000000     1.091000000
C     0.144000000     0.179000000    -0.086000000
H     0.626000000    -0.324000000    -0.976000000
C    -0.236000000     1.515000000    -0.168000000
H    -0.107000000     2.098000000    -1.077000000
C    -0.899000000     2.096000000     0.932000000
H    -1.223000000     3.124000000     0.792000000
C    -1.179000000     1.412000000     2.122000000
C    -1.811000000     2.058000000     3.287000000
O    -2.311000000     3.118000000     2.969000000
O    -1.609000000     1.537000000     4.407000000
O    -3.217000000     3.900000000     5.830000000
H    -3.247000000     3.633000000     4.912000000
H    -3.013000000     4.835000000     5.801000000
O    -0.729000000     5.532000000     7.508000000
H    -0.902000000     4.735000000     7.008000000
H    -0.662000000     5.236000000     8.416000000
O    -1.757000000    -1.840000000     7.973000000
H    -2.432000000    -2.501000000     7.821000000
H    -2.026000000    -1.095000000     7.435000000
O    -7.660000000     1.317000000     5.610000000
H    -6.755000000     1.435000000     5.899000000
H    -8.057000000     2.182000000     5.711000000
O     0.450000000     6.952000000     2.238000000
H     0.214000000     7.047000000     3.161000000
H     0.559000000     7.850000000     1.925000000
O     2.120000000     4.069000000     5.736000000
H     1.802000000     4.895000000     5.371000000
H     1.667000000     3.394000000     5.231000000
O    -5.156000000     2.020000000     6.783000000
H    -4.535000000     2.743000000     6.693000000
H    -5.249000000     1.900000000     7.728000000
O     3.044000000     1.767000000     7.538000000
H     2.525000000     2.221000000     8.203000000
H     2.454000000     1.684000000     6.789000000
O    -5.965000000     4.376000000     3.943000000
H    -6.537000000     3.620000000     3.808000000
H    -5.114000000     4.094000000     3.606000000
O     2.038000000     1.627000000     2.415000000
H     1.647000000     1.207000000     1.650000000
H     1.608000000     2.481000000     2.466000000
O    -2.845000000     6.517000000     5.175000000
H    -3.104000000     6.288000000     4.282000000
H    -1.980000000     6.915000000     5.079000000
O    -0.407000000     7.642000000     4.662000000
H    -0.499000000     8.568000000     4.440000000
H     0.469000000     7.572000000     5.041000000
O    -2.539000000     0.342000000     6.560000000
H    -3.416000000     0.708000000     6.677000000
H    -2.323000000     0.523000000     5.645000000
O    -6.337000000     4.928000000     6.787000000
H    -6.907000000     4.196000000     6.551000000
H    -5.920000000     5.181000000     5.963000000
O     0.609000000     4.320000000     3.187000000
H    -0.322000000     4.154000000     3.335000000
H     0.627000000     5.055000000     2.574000000
O    -0.790000000     2.854000000     6.668000000
H    -1.596000000     2.662000000     6.189000000
H    -0.113000000     2.356000000     6.209000000
O     1.226000000     1.184000000     4.905000000
H     1.721000000     1.257000000     4.089000000
H     0.324000000     1.027000000     4.625000000
O    -2.638000000     5.714000000     2.741000000
H    -2.377000000     4.794000000     2.798000000
H    -2.317000000     6.001000000     1.886000000
O    -0.684000000     1.079000000     8.755000000
H    -1.092000000     0.361000000     8.270000000
H    -0.772000000     1.838000000     8.179000000
