215
-1470.75685
C     2.138000000     4.272000000    -1.628000000
H     1.256000000     4.287000000    -2.264000000
C     3.113000000     3.278000000    -1.685000000
C     4.172000000     3.269000000    -0.775000000
H     4.948000000     2.509000000    -0.822000000
C     2.785000000     2.059000000    -2.475000000
O     2.196000000     2.422000000    -3.669000000
H     2.149000000     1.354000000    -1.921000000
O     3.973000000     1.298000000    -2.705000000
C     3.847000000    -0.085000000    -2.562000000
C     4.302000000    -0.628000000    -1.388000000
H     4.961000000    -0.061000000    -0.736000000
C     4.129000000    -1.968000000    -1.207000000
O     4.418000000    -2.394000000     0.082000000
C     3.515000000    -2.800000000    -2.104000000
C     3.176000000    -4.268000000    -1.832000000
H     3.045000000    -4.722000000    -2.817000000
C     1.907000000    -4.423000000    -1.026000000
C     0.714000000    -4.707000000    -1.703000000
H     0.826000000    -4.785000000    -2.782000000
H     3.984000000    -4.743000000    -1.273000000
C     3.049000000    -2.269000000    -3.324000000
H     2.522000000    -2.812000000    -4.105000000
C     3.187000000    -0.901000000    -3.538000000
C     2.766000000    -0.309000000    -4.801000000
H     2.740000000    -1.081000000    -5.573000000
H     3.484000000     0.461000000    -5.091000000
C     1.378000000     0.309000000    -4.665000000
C     0.266000000    -0.486000000    -4.992000000
H     0.395000000    -1.516000000    -5.314000000
C     1.129000000     1.544000000    -4.064000000
C    -0.141000000     2.026000000    -3.871000000
H    -0.309000000     3.007000000    -3.435000000
C    -1.210000000     1.199000000    -4.193000000
O    -2.445000000     1.686000000    -3.790000000
C    -2.977000000     1.215000000    -2.554000000
C    -3.567000000     2.301000000    -1.680000000
C    -4.230000000     2.035000000    -0.502000000
H    -4.325000000     0.994000000    -0.202000000
C    -3.271000000     3.693000000    -2.011000000
H    -2.720000000     3.994000000    -2.898000000
O    -3.914000000     0.164000000    -2.919000000
H    -2.192000000     0.750000000    -1.940000000
C    -1.033000000    -0.027000000    -4.765000000
C    -2.113000000    -1.066000000    -4.967000000
H    -1.793000000    -1.831000000    -5.677000000
H    -2.953000000    -0.548000000    -5.435000000
C    -2.634000000    -1.746000000    -3.703000000
C    -2.103000000    -2.981000000    -3.464000000
H    -1.454000000    -3.454000000    -4.196000000
C    -3.537000000    -1.158000000    -2.815000000
C    -3.863000000    -1.849000000    -1.658000000
H    -4.464000000    -1.374000000    -0.887000000
C    -3.358000000    -3.094000000    -1.433000000
O    -3.598000000    -3.721000000    -0.246000000
C    -2.680000000    -3.417000000     0.838000000
C    -3.319000000    -2.981000000     2.120000000
C    -4.560000000    -2.369000000     2.223000000
H    -5.172000000    -2.264000000     1.331000000
C    -2.628000000    -3.131000000     3.351000000
H    -1.690000000    -3.674000000     3.267000000
O    -1.793000000    -4.539000000     0.933000000
H    -1.978000000    -2.619000000     0.553000000
C    -2.415000000    -3.640000000    -2.285000000
C    -1.750000000    -4.992000000    -1.966000000
H    -1.534000000    -5.566000000    -2.870000000
H    -2.471000000    -5.616000000    -1.433000000
C    -0.532000000    -4.810000000    -1.097000000
C    -0.563000000    -4.612000000     0.299000000
C     0.607000000    -4.348000000     0.994000000
H     0.442000000    -4.221000000     2.061000000
C     1.844000000    -4.191000000     0.378000000
O     2.929000000    -3.905000000     1.130000000
C     3.344000000    -2.503000000     1.054000000
H     2.458000000    -2.023000000     0.612000000
C     3.641000000    -1.877000000     2.404000000
C     4.613000000    -0.856000000     2.552000000
H     5.084000000    -0.396000000     1.687000000
C     2.937000000    -2.274000000     3.532000000
H     2.046000000    -2.857000000     3.316000000
C     3.136000000    -1.657000000     4.737000000
O     2.268000000    -1.998000000     5.868000000
C     4.205000000    -0.784000000     4.958000000
H     4.323000000    -0.427000000     5.977000000
C     4.940000000    -0.387000000     3.838000000
O     5.740000000     0.663000000     4.036000000
C     6.214000000     1.413000000     2.929000000
C     5.529000000     2.509000000     2.483000000
H     4.612000000     2.836000000     2.965000000
C     7.393000000     1.067000000     2.312000000
H     7.914000000     0.178000000     2.659000000
C     7.912000000     1.851000000     1.273000000
H     8.870000000     1.476000000     0.922000000
C     7.278000000     2.982000000     0.881000000
H     7.818000000     3.676000000     0.242000000
C     6.050000000     3.322000000     1.493000000
O     5.292000000     4.400000000     1.106000000
C     4.280000000     4.309000000     0.130000000
C     3.309000000     5.267000000     0.155000000
H     3.331000000     6.128000000     0.818000000
C     2.346000000     5.301000000    -0.804000000
O     1.567000000     6.440000000    -1.044000000
C     0.362000000     6.579000000    -1.724000000
C    -0.815000000     6.068000000    -1.193000000
H    -0.894000000     5.546000000    -0.243000000
C     0.359000000     7.378000000    -2.860000000
H     1.301000000     7.771000000    -3.236000000
C    -0.844000000     7.637000000    -3.535000000
H    -0.842000000     8.244000000    -4.436000000
C    -2.032000000     7.104000000    -3.003000000
H    -2.900000000     7.394000000    -3.590000000
C    -2.022000000     6.381000000    -1.803000000
O    -3.236000000     6.023000000    -1.188000000
C    -3.573000000     4.683000000    -1.036000000
C    -4.219000000     4.336000000     0.125000000
H    -4.300000000     5.083000000     0.910000000
C    -4.620000000     3.022000000     0.403000000
O    -5.146000000     2.769000000     1.684000000
C    -6.228000000     1.916000000     1.850000000
C    -5.946000000     0.700000000     2.440000000
H    -4.920000000     0.557000000     2.771000000
C    -7.570000000     2.140000000     1.406000000
H    -7.846000000     3.058000000     0.894000000
C    -8.472000000     1.082000000     1.504000000
H    -9.426000000     1.070000000     0.983000000
C    -8.133000000    -0.070000000     2.215000000
H    -8.932000000    -0.790000000     2.372000000
C    -6.830000000    -0.309000000     2.660000000
O    -6.458000000    -1.452000000     3.387000000
C    -5.205000000    -1.973000000     3.406000000
C    -4.397000000    -2.101000000     4.592000000
H    -4.805000000    -1.882000000     5.575000000
C    -3.211000000    -2.716000000     4.519000000
O    -2.533000000    -2.807000000     5.714000000
C    -1.262000000    -3.257000000     5.825000000
C    -1.035000000    -4.616000000     5.739000000
H    -1.829000000    -5.321000000     5.511000000
C     0.247000000    -5.106000000     5.668000000
H     0.514000000    -6.154000000     5.566000000
C     1.344000000    -4.225000000     5.746000000
H     2.390000000    -4.497000000     5.864000000
C     1.133000000    -2.846000000     5.766000000
C    -0.199000000    -2.364000000     5.878000000
H    -0.365000000    -1.291000000     5.917000000
C    -0.702000000    -0.398000000     1.638000000
H    -0.958000000    -1.177000000     2.352000000
C    -0.080000000    -0.781000000     0.487000000
H     0.246000000    -1.808000000     0.347000000
C     0.127000000     0.076000000    -0.544000000
H     0.609000000    -0.271000000    -1.405000000
C    -0.191000000     1.402000000    -0.335000000
H     0.061000000     2.203000000    -1.026000000
C    -0.719000000     1.817000000     0.855000000
H    -0.823000000     2.892000000     0.985000000
C    -1.112000000     0.895000000     1.868000000
C    -1.894000000     1.309000000     3.131000000
O    -2.208000000     2.490000000     3.259000000
O    -2.007000000     0.574000000     4.093000000
O    -0.968000000     0.988000000     7.734000000
H    -1.833000000     0.636000000     7.525000000
H    -0.860000000     1.728000000     7.137000000
O    -4.469000000     3.834000000     4.010000000
H    -5.089000000     3.587000000     3.323000000
H    -3.689000000     3.309000000     3.828000000
O    -5.446000000    -0.682000000     8.037000000
H    -4.955000000    -0.061000000     7.499000000
H    -6.289000000    -0.769000000     7.592000000
O    -0.122000000     4.248000000     7.869000000
H    -0.966000000     4.393000000     8.296000000
H    -0.347000000     3.975000000     6.980000000
O     0.638000000     4.837000000     2.105000000
H     1.119000000     5.661000000     2.022000000
H     1.100000000     4.358000000     2.793000000
O     1.717000000    -1.038000000     8.616000000
H     2.542000000    -0.580000000     8.777000000
H     1.082000000    -0.339000000     8.458000000
O     3.636000000     3.559000000     6.564000000
H     3.697000000     4.141000000     5.806000000
H     3.199000000     2.776000000     6.229000000
O    -3.631000000     7.355000000     2.676000000
H    -3.385000000     7.859000000     3.451000000
H    -2.834000000     6.883000000     2.435000000
O     2.522000000     1.706000000     1.436000000
H     1.862000000     1.097000000     1.104000000
H     2.632000000     2.346000000     0.734000000
O    -1.458000000     2.745000000     5.810000000
H    -2.294000000     2.923000000     6.241000000
H    -1.655000000     2.801000000     4.875000000
O    -3.150000000     0.027000000     6.255000000
H    -3.107000000    -0.929000000     6.257000000
H    -2.819000000     0.280000000     5.393000000
O    -8.314000000     2.504000000     5.208000000
H    -8.988000000     3.114000000     4.910000000
H    -7.839000000     2.264000000     4.413000000
O    -3.998000000     3.475000000     7.021000000
H    -4.656000000     3.561000000     7.711000000
H    -4.447000000     3.761000000     6.225000000
O     2.369000000     3.056000000     3.703000000
H     2.472000000     2.557000000     2.892000000
H     2.000000000     2.429000000     4.325000000
O    -1.287000000     6.243000000     5.938000000
H    -1.982000000     6.277000000     6.595000000
H    -1.738000000     6.029000000     5.122000000
O    -5.883000000     5.951000000     3.356000000
H    -5.568000000     5.291000000     3.973000000
H    -5.088000000     6.364000000     3.020000000
O     1.389000000     1.411000000     5.715000000
H     0.437000000     1.463000000     5.632000000
H     1.567000000     0.480000000     5.849000000
O    -1.782000000     5.350000000     2.906000000
H    -0.857000000     5.166000000     2.741000000
H    -2.188000000     4.487000000     2.980000000
O     3.697000000     5.178000000     4.213000000
H     3.207000000     4.395000000     3.962000000
H     3.023000000     5.820000000     4.439000000
