215
-1430.76175
C     1.018000000     5.216000000    -1.946000000
H     0.405000000     5.093000000    -2.835000000
C     1.976000000     4.278000000    -1.583000000
C     2.628000000     4.311000000    -0.357000000
H     3.260000000     3.451000000    -0.151000000
C     2.119000000     3.027000000    -2.458000000
O     1.650000000     3.197000000    -3.772000000
H     1.391000000     2.301000000    -2.067000000
O     3.486000000     2.528000000    -2.526000000
C     3.682000000     1.153000000    -2.483000000
C     4.066000000     0.648000000    -1.240000000
H     4.227000000     1.322000000    -0.403000000
C     4.308000000    -0.686000000    -1.185000000
O     4.551000000    -1.085000000     0.151000000
C     4.080000000    -1.553000000    -2.231000000
C     4.164000000    -3.047000000    -2.116000000
H     4.273000000    -3.448000000    -3.126000000
C     2.942000000    -3.648000000    -1.515000000
C     1.878000000    -4.106000000    -2.300000000
H     1.913000000    -4.059000000    -3.385000000
H     5.082000000    -3.257000000    -1.563000000
C     3.614000000    -1.091000000    -3.417000000
H     3.295000000    -1.720000000    -4.244000000
C     3.419000000     0.302000000    -3.540000000
C     2.882000000     0.784000000    -4.860000000
H     3.057000000     0.047000000    -5.645000000
H     3.299000000     1.764000000    -5.104000000
C     1.370000000     1.005000000    -4.679000000
C     0.445000000    -0.039000000    -4.994000000
H     0.801000000    -1.025000000    -5.282000000
C     0.858000000     2.191000000    -4.201000000
C    -0.482000000     2.410000000    -4.102000000
H    -0.841000000     3.371000000    -3.741000000
C    -1.397000000     1.350000000    -4.287000000
O    -2.630000000     1.462000000    -3.734000000
C    -2.910000000     0.935000000    -2.424000000
C    -3.760000000     1.837000000    -1.640000000
C    -4.181000000     1.529000000    -0.334000000
H    -3.974000000     0.574000000     0.140000000
C    -4.040000000     3.157000000    -2.030000000
H    -3.656000000     3.475000000    -2.997000000
O    -3.637000000    -0.275000000    -2.618000000
H    -1.989000000     0.636000000    -1.902000000
C    -0.968000000     0.123000000    -4.806000000
C    -1.979000000    -0.946000000    -5.015000000
H    -1.633000000    -1.495000000    -5.893000000
H    -2.925000000    -0.504000000    -5.334000000
C    -2.192000000    -1.883000000    -3.831000000
C    -1.467000000    -3.010000000    -3.718000000
H    -0.837000000    -3.247000000    -4.572000000
C    -3.051000000    -1.533000000    -2.798000000
C    -3.145000000    -2.440000000    -1.705000000
H    -3.688000000    -2.121000000    -0.818000000
C    -2.527000000    -3.602000000    -1.636000000
O    -2.561000000    -4.431000000    -0.540000000
C    -1.604000000    -4.122000000     0.532000000
C    -2.161000000    -4.198000000     1.889000000
C    -3.120000000    -3.212000000     2.260000000
H    -3.446000000    -2.519000000     1.489000000
C    -1.490000000    -4.908000000     2.910000000
H    -0.745000000    -5.661000000     2.668000000
O    -0.547000000    -5.082000000     0.345000000
H    -1.085000000    -3.202000000     0.228000000
C    -1.543000000    -3.855000000    -2.600000000
C    -0.504000000    -5.023000000    -2.556000000
H    -0.245000000    -5.281000000    -3.585000000
H    -0.986000000    -5.890000000    -2.099000000
C     0.714000000    -4.634000000    -1.738000000
C     0.633000000    -4.784000000    -0.363000000
C     1.672000000    -4.389000000     0.466000000
H     1.648000000    -4.386000000     1.553000000
C     2.820000000    -3.753000000    -0.098000000
O     3.712000000    -3.121000000     0.755000000
C     3.502000000    -1.754000000     0.904000000
H     2.457000000    -1.539000000     0.633000000
C     3.572000000    -1.371000000     2.376000000
C     3.597000000    -0.017000000     2.702000000
H     3.780000000     0.703000000     1.909000000
C     3.263000000    -2.374000000     3.330000000
H     3.115000000    -3.428000000     3.106000000
C     3.197000000    -1.973000000     4.673000000
O     3.015000000    -2.957000000     5.631000000
C     3.294000000    -0.619000000     5.009000000
H     3.343000000    -0.302000000     6.047000000
C     3.429000000     0.301000000     4.046000000
O     3.364000000     1.658000000     4.363000000
C     3.945000000     2.628000000     3.579000000
C     3.242000000     3.665000000     2.981000000
H     2.167000000     3.663000000     3.143000000
C     5.293000000     2.468000000     3.326000000
H     5.815000000     1.645000000     3.807000000
C     5.905000000     3.292000000     2.319000000
H     6.893000000     2.975000000     1.995000000
C     5.209000000     4.364000000     1.798000000
H     5.598000000     4.923000000     0.950000000
C     3.916000000     4.600000000     2.186000000
O     3.231000000     5.672000000     1.608000000
C     2.479000000     5.460000000     0.473000000
C     1.463000000     6.375000000     0.148000000
H     1.303000000     7.138000000     0.905000000
C     0.669000000     6.225000000    -0.980000000
O    -0.324000000     7.207000000    -1.052000000
C    -1.600000000     7.134000000    -1.609000000
C    -2.566000000     6.148000000    -1.204000000
H    -2.432000000     5.354000000    -0.473000000
C    -1.982000000     8.081000000    -2.586000000
H    -1.240000000     8.851000000    -2.779000000
C    -3.238000000     8.058000000    -3.133000000
H    -3.573000000     8.764000000    -3.888000000
C    -4.175000000     7.110000000    -2.793000000
H    -5.150000000     7.047000000    -3.270000000
C    -3.814000000     6.107000000    -1.882000000
O    -4.917000000     5.314000000    -1.560000000
C    -4.738000000     4.003000000    -1.168000000
C    -5.061000000     3.677000000     0.153000000
H    -5.487000000     4.409000000     0.834000000
C    -4.853000000     2.410000000     0.589000000
O    -5.129000000     2.155000000     1.887000000
C    -5.551000000     0.879000000     2.152000000
C    -4.685000000     0.100000000     2.922000000
H    -3.738000000     0.473000000     3.303000000
C    -6.639000000     0.321000000     1.468000000
H    -7.329000000     0.928000000     0.889000000
C    -6.846000000    -1.043000000     1.547000000
H    -7.791000000    -1.479000000     1.233000000
C    -6.043000000    -1.800000000     2.395000000
H    -6.422000000    -2.812000000     2.508000000
C    -4.906000000    -1.252000000     3.066000000
O    -4.312000000    -2.044000000     4.045000000
C    -3.477000000    -3.035000000     3.631000000
C    -2.832000000    -3.839000000     4.572000000
H    -2.996000000    -3.669000000     5.634000000
C    -1.804000000    -4.714000000     4.230000000
O    -1.085000000    -5.347000000     5.182000000
C     0.256000000    -5.390000000     5.276000000
C     0.853000000    -6.584000000     5.574000000
H     0.261000000    -7.495000000     5.608000000
C     2.244000000    -6.597000000     5.779000000
H     2.740000000    -7.489000000     6.152000000
C     3.021000000    -5.425000000     5.738000000
H     4.094000000    -5.502000000     5.893000000
C     2.339000000    -4.190000000     5.503000000
C     1.014000000    -4.188000000     5.145000000
H     0.527000000    -3.270000000     4.827000000
C    -0.159000000    -0.535000000     2.014000000
H     0.032000000    -1.372000000     2.681000000
C     0.143000000    -0.787000000     0.687000000
H     0.554000000    -1.716000000     0.300000000
C    -0.045000000     0.183000000    -0.253000000
H     0.045000000    -0.064000000    -1.341000000
C    -0.558000000     1.361000000     0.187000000
H    -0.806000000     2.110000000    -0.562000000
C    -0.817000000     1.718000000     1.486000000
H    -1.278000000     2.674000000     1.724000000
C    -0.595000000     0.726000000     2.428000000
C    -0.931000000     1.043000000     3.886000000
O    -1.278000000     2.184000000     4.156000000
O    -1.218000000     0.077000000     4.603000000
O    -2.479000000     5.898000000     5.550000000
H    -2.728000000     6.128000000     6.445000000
H    -2.864000000     5.033000000     5.409000000
O     2.935000000     4.685000000     6.805000000
H     2.813000000     4.683000000     5.856000000
H     2.567000000     3.851000000     7.096000000
O     0.796000000     1.160000000     9.373000000
H    -0.031000000     0.807000000     9.702000000
H     1.360000000     0.394000000     9.271000000
O     1.442000000     6.979000000     3.751000000
H     1.150000000     6.143000000     4.114000000
H     0.660000000     7.346000000     3.338000000
O    -3.103000000     5.732000000     8.086000000
H    -2.378000000     5.669000000     8.708000000
H    -3.549000000     4.888000000     8.153000000
O    -7.048000000    -0.677000000     5.908000000
H    -6.811000000    -0.531000000     4.992000000
H    -6.655000000     0.058000000     6.378000000
O     0.753000000    -2.229000000     8.832000000
H    -0.153000000    -2.538000000     8.829000000
H     0.800000000    -1.620000000     8.095000000
O    -5.953000000     6.249000000     3.507000000
H    -6.148000000     5.611000000     2.821000000
H    -5.779000000     5.719000000     4.285000000
O     0.936000000     2.202000000     6.578000000
H     0.483000000     2.101000000     7.415000000
H     0.245000000     2.124000000     5.920000000
O    -5.623000000     0.969000000     7.543000000
H    -5.538000000     1.921000000     7.606000000
H    -5.753000000     0.681000000     8.447000000
O    -2.778000000    -0.195000000     6.725000000
H    -3.636000000    -0.379000000     6.342000000
H    -2.221000000     0.010000000     5.974000000
O     0.025000000     4.623000000     4.047000000
H    -0.883000000     4.727000000     3.763000000
H     0.091000000     3.704000000     4.306000000
O    -1.675000000     8.372000000     4.950000000
H    -1.777000000     7.426000000     5.055000000
H    -2.564000000     8.694000000     4.799000000
O    -7.770000000     3.629000000     3.850000000
H    -8.268000000     2.812000000     3.809000000
H    -7.217000000     3.534000000     4.625000000
O    -3.628000000     2.794000000     5.317000000
H    -3.658000000     2.151000000     6.026000000
H    -2.846000000     2.561000000     4.816000000
O    -3.365000000    -0.944000000     9.595000000
H    -3.478000000    -0.599000000     8.709000000
H    -4.071000000    -0.541000000    10.101000000
O     0.348000000    -0.777000000     6.428000000
H     0.585000000     0.150000000     6.466000000
H    -0.226000000    -0.846000000     5.664000000
O    -5.668000000     4.596000000     5.838000000
H    -5.782000000     4.442000000     6.776000000
H    -4.971000000     3.993000000     5.579000000
O     1.579000000     5.627000000     9.066000000
H     1.264000000     6.525000000     8.966000000
H     1.694000000     5.312000000     8.170000000
