215
-1455.67133
C    -1.536000000     4.814000000    -1.606000000
H    -2.206000000     4.218000000    -2.220000000
C    -0.180000000     4.599000000    -1.617000000
C     0.714000000     5.357000000    -0.907000000
H     1.775000000     5.120000000    -0.913000000
C     0.338000000     3.587000000    -2.735000000
O    -0.552000000     3.459000000    -3.890000000
H     0.263000000     2.579000000    -2.300000000
O     1.718000000     3.795000000    -3.112000000
C     2.571000000     2.737000000    -3.005000000
C     3.401000000     2.628000000    -1.903000000
H     3.331000000     3.403000000    -1.145000000
C     3.999000000     1.411000000    -1.608000000
O     4.760000000     1.378000000    -0.457000000
C     3.997000000     0.389000000    -2.572000000
C     4.774000000    -0.894000000    -2.394000000
H     5.012000000    -1.423000000    -3.320000000
C     4.098000000    -1.976000000    -1.531000000
C     3.412000000    -2.994000000    -2.189000000
H     3.315000000    -2.942000000    -3.270000000
H     5.776000000    -0.778000000    -1.975000000
C     3.258000000     0.560000000    -3.788000000
H     3.298000000    -0.310000000    -4.438000000
C     2.533000000     1.685000000    -3.982000000
C     1.572000000     1.890000000    -5.157000000
H     1.997000000     1.398000000    -6.034000000
H     1.574000000     2.958000000    -5.388000000
C     0.219000000     1.280000000    -4.842000000
C    -0.077000000    -0.069000000    -4.961000000
H     0.730000000    -0.662000000    -5.385000000
C    -0.746000000     2.112000000    -4.256000000
C    -1.888000000     1.524000000    -3.695000000
H    -2.651000000     2.141000000    -3.227000000
C    -2.136000000     0.185000000    -3.775000000
O    -3.379000000    -0.222000000    -3.264000000
C    -3.357000000    -1.073000000    -2.103000000
C    -4.471000000    -0.713000000    -1.133000000
C    -4.795000000    -1.573000000    -0.131000000
H    -4.289000000    -2.535000000    -0.120000000
C    -5.096000000     0.518000000    -1.234000000
H    -4.899000000     1.100000000    -2.131000000
O    -3.383000000    -2.527000000    -2.485000000
H    -2.352000000    -0.923000000    -1.682000000
C    -1.212000000    -0.618000000    -4.401000000
C    -1.490000000    -2.146000000    -4.580000000
H    -0.943000000    -2.531000000    -5.443000000
H    -2.539000000    -2.261000000    -4.861000000
C    -1.257000000    -3.030000000    -3.436000000
C    -0.038000000    -3.688000000    -3.393000000
H     0.760000000    -3.511000000    -4.109000000
C    -2.244000000    -3.232000000    -2.447000000
C    -1.942000000    -4.062000000    -1.328000000
H    -2.562000000    -4.161000000    -0.441000000
C    -0.633000000    -4.536000000    -1.253000000
O    -0.294000000    -5.007000000    -0.009000000
C     0.471000000    -4.138000000     0.864000000
C    -0.131000000    -4.233000000     2.271000000
C    -1.454000000    -4.658000000     2.517000000
H    -2.132000000    -4.816000000     1.682000000
C     0.685000000    -3.932000000     3.333000000
H     1.738000000    -3.703000000     3.193000000
O     1.869000000    -4.524000000     0.804000000
H     0.329000000    -3.152000000     0.398000000
C     0.303000000    -4.364000000    -2.247000000
C     1.676000000    -4.859000000    -2.087000000
H     2.048000000    -5.061000000    -3.093000000
H     1.718000000    -5.837000000    -1.604000000
C     2.596000000    -3.853000000    -1.403000000
C     2.637000000    -3.757000000     0.030000000
C     3.427000000    -2.824000000     0.658000000
H     3.321000000    -2.694000000     1.732000000
C     4.146000000    -1.872000000    -0.136000000
O     4.820000000    -0.895000000     0.539000000
C     4.216000000     0.437000000     0.526000000
H     3.162000000     0.238000000     0.283000000
C     4.228000000     1.032000000     1.908000000
C     4.124000000     2.394000000     2.091000000
H     3.946000000     3.000000000     1.206000000
C     4.286000000     0.256000000     3.104000000
H     4.331000000    -0.810000000     2.896000000
C     4.250000000     0.823000000     4.396000000
O     4.073000000    -0.080000000     5.435000000
C     4.104000000     2.166000000     4.495000000
H     3.851000000     2.647000000     5.436000000
C     4.022000000     2.992000000     3.383000000
O     3.800000000     4.361000000     3.614000000
C     3.719000000     5.220000000     2.574000000
C     2.434000000     5.704000000     2.249000000
H     1.570000000     5.405000000     2.837000000
C     4.835000000     5.718000000     1.989000000
H     5.830000000     5.393000000     2.280000000
C     4.663000000     6.672000000     0.985000000
H     5.483000000     6.960000000     0.331000000
C     3.392000000     7.087000000     0.562000000
H     3.289000000     7.862000000    -0.193000000
C     2.301000000     6.608000000     1.222000000
O     1.042000000     7.092000000     0.740000000
C     0.216000000     6.319000000     0.007000000
C    -1.180000000     6.508000000     0.092000000
H    -1.500000000     7.323000000     0.737000000
C    -2.091000000     5.767000000    -0.752000000
O    -3.452000000     6.069000000    -0.688000000
C    -4.506000000     5.254000000    -1.098000000
C    -4.829000000     3.948000000    -0.521000000
H    -4.186000000     3.505000000     0.235000000
C    -5.317000000     5.675000000    -2.137000000
H    -5.253000000     6.614000000    -2.682000000
C    -6.444000000     4.872000000    -2.499000000
H    -7.045000000     5.312000000    -3.290000000
C    -6.821000000     3.751000000    -1.852000000
H    -7.739000000     3.212000000    -2.072000000
C    -6.045000000     3.281000000    -0.830000000
O    -6.501000000     2.166000000    -0.123000000
C    -6.000000000     0.904000000    -0.225000000
C    -6.355000000     0.048000000     0.830000000
H    -6.939000000     0.335000000     1.701000000
C    -5.739000000    -1.180000000     0.866000000
O    -5.999000000    -1.981000000     1.915000000
C    -5.699000000    -3.295000000     2.110000000
C    -4.665000000    -3.606000000     2.994000000
H    -4.193000000    -2.826000000     3.586000000
C    -6.120000000    -4.238000000     1.136000000
H    -6.856000000    -3.928000000     0.399000000
C    -5.583000000    -5.513000000     1.260000000
H    -5.912000000    -6.265000000     0.548000000
C    -4.692000000    -5.900000000     2.254000000
H    -4.414000000    -6.947000000     2.343000000
C    -4.189000000    -4.918000000     3.104000000
O    -3.220000000    -5.270000000     4.004000000
C    -1.965000000    -4.836000000     3.789000000
C    -1.117000000    -4.524000000     4.879000000
H    -1.555000000    -4.568000000     5.873000000
C     0.187000000    -4.072000000     4.637000000
O     0.982000000    -3.798000000     5.729000000
C     2.285000000    -3.265000000     5.687000000
C     3.359000000    -4.122000000     5.753000000
H     3.157000000    -5.149000000     6.047000000
C     4.670000000    -3.704000000     5.474000000
H     5.489000000    -4.414000000     5.564000000
C     4.892000000    -2.344000000     5.305000000
H     5.911000000    -1.977000000     5.211000000
C     3.805000000    -1.460000000     5.387000000
C     2.506000000    -1.892000000     5.609000000
H     1.613000000    -1.275000000     5.553000000
C     0.003000000    -0.010000000     2.535000000
H     0.223000000    -0.350000000     3.544000000
C     0.854000000    -0.387000000     1.493000000
H     1.720000000    -1.036000000     1.599000000
C     0.603000000     0.083000000     0.230000000
H     1.225000000    -0.349000000    -0.608000000
C    -0.540000000     0.867000000     0.009000000
H    -0.745000000     1.140000000    -1.023000000
C    -1.452000000     1.175000000     0.985000000
H    -2.311000000     1.790000000     0.732000000
C    -1.174000000     0.734000000     2.284000000
C    -2.107000000     1.127000000     3.433000000
O    -3.153000000     1.731000000     3.303000000
O    -1.681000000     0.847000000     4.575000000
O     0.470000000     1.473000000     5.868000000
H    -0.424000000     1.139000000     5.937000000
H     0.494000000     1.921000000     5.022000000
O     0.309000000     4.760000000     5.500000000
H     0.510000000     4.205000000     4.747000000
H    -0.348000000     5.376000000     5.176000000
O     0.204000000     3.437000000     3.188000000
H     0.416000000     2.690000000     2.627000000
H    -0.692000000     3.670000000     2.946000000
O    -5.007000000     6.018000000     6.066000000
H    -5.915000000     6.319000000     6.078000000
H    -5.051000000     5.137000000     5.695000000
O    -3.326000000     0.203000000     9.119000000
H    -2.380000000     0.068000000     9.164000000
H    -3.661000000    -0.589000000     8.698000000
O    -2.283000000     3.081000000     6.423000000
H    -1.410000000     3.467000000     6.348000000
H    -2.340000000     2.475000000     5.684000000
O    -5.572000000     2.955000000     5.177000000
H    -4.657000000     2.736000000     5.002000000
H    -5.895000000     2.228000000     5.710000000
O     1.434000000     3.182000000     8.057000000
H     2.356000000     2.978000000     8.214000000
H     1.197000000     2.649000000     7.299000000
O    -5.090000000     0.046000000     4.139000000
H    -5.716000000    -0.078000000     3.426000000
H    -4.423000000     0.627000000     3.774000000
O    -6.055000000    -0.507000000     6.621000000
H    -5.807000000    -0.337000000     5.712000000
H    -5.588000000    -1.310000000     6.851000000
O    -7.368000000     2.952000000     2.867000000
H    -6.497000000     3.336000000     2.763000000
H    -7.250000000     2.265000000     3.523000000
O    -4.051000000    -2.391000000     7.538000000
H    -3.135000000    -2.246000000     7.300000000
H    -4.142000000    -3.343000000     7.573000000
O    -1.687000000    -1.198000000     6.234000000
H    -1.746000000    -0.344000000     5.806000000
H    -0.961000000    -1.106000000     6.852000000
O    -1.727000000     6.391000000     4.465000000
H    -2.119000000     5.660000000     3.987000000
H    -2.474000000     6.913000000     4.758000000
O    -5.209000000     4.864000000     2.485000000
H    -5.971000000     5.261000000     2.908000000
H    -4.653000000     5.606000000     2.248000000
O    -4.211000000     2.690000000     8.057000000
H    -3.505000000     2.813000000     7.422000000
H    -4.095000000     1.795000000     8.375000000
O    -2.823000000     4.351000000     3.152000000
H    -3.710000000     4.656000000     2.960000000
H    -2.889000000     3.396000000     3.135000000
O    -0.189000000     5.702000000     8.216000000
H    -0.186000000     5.571000000     7.268000000
H    -0.071000000     4.825000000     8.580000000
O    -0.378000000    -0.416000000     9.093000000
H     0.504000000    -0.384000000     8.723000000
H    -0.376000000     0.254000000     9.776000000
