215
-1446.58530
C    -1.095000000     4.669000000    -1.856000000
H    -1.898000000     4.158000000    -2.382000000
C     0.240000000     4.402000000    -2.073000000
C     1.179000000     5.126000000    -1.267000000
H     2.229000000     4.851000000    -1.329000000
C     0.674000000     3.250000000    -2.897000000
O    -0.320000000     3.046000000    -3.967000000
H     0.550000000     2.554000000    -2.055000000
O     2.097000000     3.351000000    -3.414000000
C     2.793000000     2.207000000    -3.312000000
C     3.716000000     2.144000000    -2.307000000
H     3.775000000     3.005000000    -1.647000000
C     4.478000000     0.985000000    -2.097000000
O     5.001000000     0.821000000    -0.791000000
C     4.358000000    -0.097000000    -2.939000000
C     4.931000000    -1.430000000    -2.540000000
H     4.992000000    -2.046000000    -3.439000000
C     4.001000000    -2.219000000    -1.644000000
C     3.141000000    -3.213000000    -2.133000000
H     3.091000000    -3.537000000    -3.169000000
H     5.896000000    -1.384000000    -2.032000000
C     3.420000000    -0.033000000    -3.981000000
H     3.090000000    -0.869000000    -4.592000000
C     2.593000000     1.074000000    -4.125000000
C     1.503000000     1.144000000    -5.190000000
H     1.801000000     0.420000000    -5.951000000
H     1.650000000     2.122000000    -5.653000000
C     0.056000000     0.781000000    -4.714000000
C    -0.401000000    -0.513000000    -4.943000000
H     0.238000000    -1.185000000    -5.511000000
C    -0.787000000     1.767000000    -4.236000000
C    -2.015000000     1.327000000    -3.685000000
H    -2.665000000     2.018000000    -3.154000000
C    -2.455000000     0.025000000    -3.794000000
O    -3.678000000    -0.214000000    -3.286000000
C    -3.600000000    -1.017000000    -2.118000000
C    -4.568000000    -0.575000000    -0.996000000
C    -5.289000000    -1.514000000    -0.236000000
H    -5.282000000    -2.558000000    -0.539000000
C    -4.566000000     0.723000000    -0.612000000
H    -4.015000000     1.458000000    -1.193000000
O    -3.814000000    -2.475000000    -2.382000000
H    -2.584000000    -0.941000000    -1.703000000
C    -1.678000000    -0.870000000    -4.461000000
C    -2.123000000    -2.284000000    -4.679000000
H    -1.525000000    -2.623000000    -5.527000000
H    -3.149000000    -2.403000000    -5.036000000
C    -1.834000000    -3.131000000    -3.449000000
C    -0.535000000    -3.664000000    -3.332000000
H     0.138000000    -3.690000000    -4.185000000
C    -2.758000000    -3.267000000    -2.449000000
C    -2.429000000    -4.000000000    -1.264000000
H    -3.076000000    -4.049000000    -0.392000000
C    -1.109000000    -4.584000000    -1.144000000
O    -0.736000000    -4.973000000     0.141000000
C     0.019000000    -4.031000000     0.954000000
C    -0.432000000    -3.957000000     2.380000000
C    -1.766000000    -4.268000000     2.669000000
H    -2.546000000    -4.552000000     1.966000000
C     0.407000000    -3.595000000     3.398000000
H     1.484000000    -3.592000000     3.255000000
O     1.448000000    -4.409000000     0.926000000
H    -0.118000000    -3.023000000     0.535000000
C    -0.242000000    -4.384000000    -2.201000000
C     1.167000000    -4.835000000    -2.001000000
H     1.580000000    -5.194000000    -2.946000000
H     0.990000000    -5.695000000    -1.351000000
C     2.159000000    -3.854000000    -1.343000000
C     2.262000000    -3.749000000     0.057000000
C     3.141000000    -2.810000000     0.592000000
H     3.172000000    -2.798000000     1.679000000
C     3.888000000    -1.995000000    -0.236000000
O     4.735000000    -1.110000000     0.405000000
C     4.279000000     0.240000000     0.255000000
H     3.219000000     0.074000000     0.013000000
C     4.430000000     0.965000000     1.586000000
C     4.680000000     2.353000000     1.585000000
H     5.047000000     2.846000000     0.689000000
C     4.088000000     0.228000000     2.719000000
H     3.827000000    -0.823000000     2.626000000
C     4.017000000     1.040000000     3.941000000
O     3.639000000     0.429000000     5.162000000
C     4.306000000     2.396000000     3.899000000
H     4.225000000     2.999000000     4.799000000
C     4.557000000     3.079000000     2.743000000
O     4.791000000     4.448000000     2.888000000
C     4.574000000     5.448000000     1.977000000
C     3.258000000     5.580000000     1.469000000
H     2.470000000     4.916000000     1.812000000
C     5.584000000     6.308000000     1.579000000
H     6.591000000     6.301000000     1.987000000
C     5.235000000     7.424000000     0.716000000
H     5.938000000     8.211000000     0.457000000
C     3.964000000     7.450000000     0.184000000
H     3.786000000     8.289000000    -0.485000000
C     2.971000000     6.544000000     0.520000000
O     1.680000000     6.859000000     0.245000000
C     0.753000000     6.109000000    -0.400000000
C    -0.619000000     6.395000000    -0.291000000
H    -0.903000000     7.175000000     0.411000000
C    -1.511000000     5.673000000    -1.031000000
O    -2.836000000     6.119000000    -0.971000000
C    -3.857000000     5.271000000    -0.967000000
C    -3.912000000     4.277000000    -0.009000000
H    -3.107000000     4.041000000     0.682000000
C    -4.779000000     5.426000000    -1.992000000
H    -4.630000000     6.156000000    -2.784000000
C    -5.944000000     4.714000000    -1.979000000
H    -6.686000000     4.734000000    -2.773000000
C    -6.094000000     3.711000000    -1.052000000
H    -6.874000000     2.954000000    -1.047000000
C    -5.099000000     3.520000000    -0.086000000
O    -5.282000000     2.460000000     0.734000000
C    -5.350000000     1.155000000     0.420000000
C    -5.992000000     0.205000000     1.247000000
H    -6.471000000     0.522000000     2.170000000
C    -5.940000000    -1.105000000     0.919000000
O    -6.659000000    -1.998000000     1.688000000
C    -6.106000000    -3.199000000     2.227000000
C    -4.852000000    -3.332000000     2.873000000
H    -4.167000000    -2.488000000     2.839000000
C    -6.870000000    -4.359000000     2.203000000
H    -7.813000000    -4.367000000     1.663000000
C    -6.654000000    -5.505000000     2.923000000
H    -7.319000000    -6.361000000     2.837000000
C    -5.461000000    -5.662000000     3.565000000
H    -5.219000000    -6.601000000     4.055000000
C    -4.524000000    -4.543000000     3.544000000
O    -3.384000000    -4.634000000     4.398000000
C    -2.152000000    -4.366000000     4.007000000
C    -1.287000000    -4.097000000     5.023000000
H    -1.639000000    -4.188000000     6.047000000
C    -0.051000000    -3.621000000     4.738000000
O     0.740000000    -3.272000000     5.848000000
C     2.008000000    -2.755000000     5.717000000
C     3.020000000    -3.659000000     5.578000000
H     2.840000000    -4.720000000     5.734000000
C     4.333000000    -3.260000000     5.277000000
H     5.169000000    -3.916000000     5.046000000
C     4.512000000    -1.853000000     5.154000000
H     5.505000000    -1.512000000     4.876000000
C     3.469000000    -0.934000000     5.361000000
C     2.172000000    -1.434000000     5.538000000
H     1.340000000    -0.735000000     5.570000000
C    -0.417000000    -0.013000000     2.335000000
H    -0.305000000    -0.309000000     3.375000000
C     0.384000000    -0.602000000     1.346000000
H     1.210000000    -1.269000000     1.577000000
C     0.144000000    -0.222000000     0.041000000
H     0.797000000    -0.592000000    -0.744000000
C    -0.835000000     0.712000000    -0.231000000
H    -0.980000000     1.042000000    -1.257000000
C    -1.703000000     1.196000000     0.771000000
H    -2.456000000     1.977000000     0.706000000
C    -1.469000000     0.785000000     2.046000000
C    -2.219000000     1.486000000     3.215000000
O    -2.683000000     2.611000000     3.052000000
O    -2.287000000     0.910000000     4.255000000
O    -0.390000000     1.379000000     5.859000000
H    -1.145000000     1.105000000     5.337000000
H     0.156000000     1.873000000     5.247000000
O    -6.597000000    -0.765000000     4.404000000
H    -6.904000000    -1.373000000     3.732000000
H    -6.683000000    -1.252000000     5.224000000
O     0.968000000     3.286000000     4.354000000
H     1.173000000     2.832000000     3.536000000
H     0.437000000     4.035000000     4.085000000
O     1.378000000     2.469000000     1.597000000
H     2.093000000     2.061000000     1.109000000
H     0.639000000     1.871000000     1.486000000
O    -5.587000000     5.895000000     5.504000000
H    -5.813000000     5.248000000     6.172000000
H    -5.233000000     5.377000000     4.780000000
O     0.563000000     3.620000000     7.161000000
H     1.227000000     3.829000000     6.504000000
H    -0.034000000     3.020000000     6.715000000
O    -2.431000000     3.364000000     6.004000000
H    -2.998000000     3.632000000     5.281000000
H    -2.088000000     2.511000000     5.735000000
O    -6.729000000     3.156000000     6.570000000
H    -7.445000000     2.603000000     6.884000000
H    -6.244000000     2.598000000     5.962000000
O    -4.406000000     4.216000000     3.801000000
H    -3.728000000     3.597000000     3.528000000
H    -5.230000000     3.776000000     3.592000000
O    -5.258000000     1.564000000     4.647000000
H    -5.698000000     0.784000000     4.310000000
H    -4.326000000     1.385000000     4.525000000
O    -5.221000000    -3.164000000     6.185000000
H    -4.712000000    -3.683000000     5.562000000
H    -4.715000000    -2.358000000     6.294000000
O    -3.752000000     2.032000000     7.981000000
H    -3.691000000     2.727000000     7.326000000
H    -2.851000000     1.905000000     8.280000000
O    -7.323000000     3.209000000     2.420000000
H    -7.873000000     2.426000000     2.379000000
H    -6.445000000     2.896000000     2.203000000
O    -2.533000000    -1.359000000     5.740000000
H    -2.208000000    -0.830000000     5.012000000
H    -1.780000000    -1.452000000     6.324000000
O    -3.102000000     6.715000000     3.082000000
H    -3.843000000     7.316000000     3.000000000
H    -3.491000000     5.843000000     3.011000000
O    -2.412000000     6.178000000     6.701000000
H    -2.508000000     5.230000000     6.608000000
H    -3.283000000     6.526000000     6.510000000
O    -0.581000000     5.356000000     3.006000000
H    -1.101000000     4.640000000     2.642000000
H    -1.228000000     5.973000000     3.348000000
O    -4.835000000    -0.344000000     7.253000000
H    -4.106000000    -0.585000000     6.682000000
H    -4.557000000     0.475000000     7.664000000
O    -0.499000000    -0.658000000     7.929000000
H    -0.266000000     0.239000000     7.689000000
H    -1.247000000    -0.562000000     8.519000000
