215
-1451.82895
C    -0.868000000     5.028000000    -0.646000000
H    -1.543000000     4.783000000    -1.462000000
C     0.410000000     4.536000000    -0.696000000
C     1.247000000     4.791000000     0.373000000
H     2.236000000     4.340000000     0.343000000
C     0.882000000     3.628000000    -1.907000000
O    -0.093000000     3.796000000    -2.928000000
H     0.971000000     2.596000000    -1.534000000
O     2.261000000     3.917000000    -2.353000000
C     2.964000000     2.854000000    -2.725000000
C     3.891000000     2.481000000    -1.802000000
H     4.025000000     3.066000000    -0.895000000
C     4.444000000     1.196000000    -1.883000000
O     5.137000000     0.770000000    -0.748000000
C     4.254000000     0.358000000    -2.947000000
C     4.839000000    -1.009000000    -3.040000000
H     5.126000000    -1.272000000    -4.060000000
C     3.894000000    -2.100000000    -2.376000000
C     2.969000000    -2.779000000    -3.163000000
H     2.774000000    -2.608000000    -4.219000000
H     5.781000000    -0.843000000    -2.512000000
C     3.345000000     0.798000000    -3.898000000
H     3.047000000     0.076000000    -4.653000000
C     2.649000000     1.983000000    -3.784000000
C     1.609000000     2.266000000    -4.824000000
H     1.793000000     1.789000000    -5.789000000
H     1.641000000     3.330000000    -5.068000000
C     0.175000000     1.895000000    -4.330000000
C    -0.410000000     0.717000000    -4.746000000
H     0.131000000     0.010000000    -5.369000000
C    -0.577000000     2.644000000    -3.435000000
C    -1.817000000     2.272000000    -2.896000000
H    -2.270000000     3.020000000    -2.250000000
C    -2.402000000     1.092000000    -3.465000000
O    -3.572000000     0.693000000    -2.934000000
C    -3.514000000    -0.299000000    -1.881000000
C    -4.632000000    -0.019000000    -0.818000000
C    -5.097000000    -0.973000000     0.045000000
H    -4.869000000    -2.017000000    -0.154000000
C    -4.915000000     1.303000000    -0.532000000
H    -4.373000000     2.043000000    -1.116000000
O    -3.738000000    -1.533000000    -2.568000000
H    -2.537000000    -0.264000000    -1.377000000
C    -1.688000000     0.347000000    -4.418000000
C    -2.218000000    -0.977000000    -4.947000000
H    -1.775000000    -1.141000000    -5.931000000
H    -3.301000000    -0.926000000    -5.076000000
C    -1.904000000    -2.111000000    -3.959000000
C    -0.691000000    -2.798000000    -4.069000000
H     0.030000000    -2.431000000    -4.794000000
C    -2.688000000    -2.388000000    -2.867000000
C    -2.417000000    -3.520000000    -2.041000000
H    -3.167000000    -3.740000000    -1.286000000
C    -1.271000000    -4.266000000    -2.233000000
O    -0.933000000    -5.123000000    -1.209000000
C    -0.061000000    -4.472000000    -0.203000000
C    -0.461000000    -4.797000000     1.238000000
C    -1.860000000    -4.773000000     1.588000000
H    -2.634000000    -4.355000000     0.949000000
C     0.524000000    -4.944000000     2.196000000
H     1.589000000    -4.931000000     1.980000000
O     1.333000000    -4.835000000    -0.534000000
H    -0.118000000    -3.374000000    -0.234000000
C    -0.321000000    -3.846000000    -3.216000000
C     1.051000000    -4.461000000    -3.346000000
H     1.299000000    -4.437000000    -4.409000000
H     1.007000000    -5.488000000    -2.976000000
C     2.073000000    -3.633000000    -2.564000000
C     2.182000000    -3.925000000    -1.202000000
C     3.151000000    -3.281000000    -0.400000000
H     3.194000000    -3.547000000     0.653000000
C     3.966000000    -2.370000000    -1.015000000
O     4.716000000    -1.499000000    -0.180000000
C     4.364000000    -0.069000000     0.099000000
H     3.293000000     0.093000000    -0.095000000
C     4.380000000     0.262000000     1.609000000
C     4.564000000     1.572000000     2.006000000
H     4.721000000     2.376000000     1.292000000
C     4.026000000    -0.706000000     2.570000000
H     3.810000000    -1.742000000     2.321000000
C     3.791000000    -0.339000000     3.871000000
O     3.250000000    -1.210000000     4.851000000
C     4.120000000     0.938000000     4.328000000
H     3.982000000     1.261000000     5.357000000
C     4.562000000     1.896000000     3.390000000
O     4.889000000     3.120000000     3.929000000
C     4.529000000     4.338000000     3.432000000
C     3.249000000     4.586000000     3.165000000
H     2.502000000     3.801000000     3.251000000
C     5.452000000     5.334000000     3.424000000
H     6.475000000     5.120000000     3.723000000
C     5.087000000     6.562000000     2.992000000
H     5.845000000     7.340000000     3.037000000
C     3.779000000     6.880000000     2.679000000
H     3.557000000     7.891000000     2.348000000
C     2.935000000     5.826000000     2.693000000
O     1.683000000     6.162000000     2.410000000
C     0.859000000     5.670000000     1.389000000
C    -0.412000000     6.190000000     1.406000000
H    -0.749000000     6.842000000     2.208000000
C    -1.338000000     5.788000000     0.486000000
O    -2.585000000     6.354000000     0.549000000
C    -3.728000000     5.763000000     0.060000000
C    -4.370000000     4.642000000     0.614000000
H    -3.968000000     4.270000000     1.553000000
C    -4.283000000     6.273000000    -1.083000000
H    -3.888000000     7.197000000    -1.498000000
C    -5.375000000     5.671000000    -1.759000000
H    -5.721000000     6.129000000    -2.682000000
C    -6.007000000     4.554000000    -1.131000000
H    -6.877000000     4.070000000    -1.568000000
C    -5.513000000     4.074000000     0.027000000
O    -6.132000000     3.063000000     0.681000000
C    -5.777000000     1.730000000     0.491000000
C    -6.334000000     0.716000000     1.193000000
H    -6.917000000     0.929000000     2.085000000
C    -6.073000000    -0.660000000     0.969000000
O    -6.679000000    -1.631000000     1.748000000
C    -6.095000000    -2.873000000     1.765000000
C    -5.033000000    -3.207000000     2.527000000
H    -4.612000000    -2.461000000     3.196000000
C    -6.839000000    -3.858000000     1.121000000
H    -7.721000000    -3.535000000     0.574000000
C    -6.525000000    -5.181000000     1.248000000
H    -7.215000000    -5.977000000     0.979000000
C    -5.397000000    -5.540000000     1.926000000
H    -5.212000000    -6.593000000     2.122000000
C    -4.597000000    -4.559000000     2.554000000
O    -3.571000000    -4.871000000     3.357000000
C    -2.262000000    -4.976000000     2.904000000
C    -1.245000000    -5.185000000     3.901000000
H    -1.539000000    -5.465000000     4.909000000
C     0.089000000    -5.236000000     3.529000000
O     1.036000000    -5.381000000     4.538000000
C     2.204000000    -4.669000000     4.587000000
C     3.412000000    -5.338000000     4.446000000
H     3.405000000    -6.411000000     4.272000000
C     4.570000000    -4.578000000     4.554000000
H     5.577000000    -4.974000000     4.451000000
C     4.563000000    -3.183000000     4.588000000
H     5.475000000    -2.592000000     4.564000000
C     3.310000000    -2.595000000     4.738000000
C     2.156000000    -3.304000000     4.825000000
H     1.265000000    -2.698000000     4.973000000
C    -0.510000000    -0.747000000     2.312000000
H    -0.191000000    -1.502000000     3.025000000
C     0.126000000    -0.694000000     1.031000000
H     0.949000000    -1.389000000     0.882000000
C    -0.286000000     0.143000000     0.058000000
H     0.200000000     0.177000000    -0.878000000
C    -1.385000000     0.959000000     0.356000000
H    -1.790000000     1.559000000    -0.456000000
C    -1.978000000     0.998000000     1.621000000
H    -2.887000000     1.549000000     1.849000000
C    -1.620000000     0.060000000     2.638000000
C    -2.240000000    -0.017000000     3.978000000
O    -3.049000000     0.800000000     4.357000000
O    -2.091000000    -1.028000000     4.667000000
O    -2.839000000     0.695000000     7.303000000
H    -3.629000000     0.218000000     7.558000000
H    -2.705000000     0.461000000     6.384000000
O     1.528000000    -2.988000000     8.240000000
H     0.812000000    -2.674000000     7.688000000
H     1.418000000    -3.939000000     8.257000000
O     1.449000000     3.191000000     7.958000000
H     1.092000000     3.807000000     7.318000000
H     1.492000000     2.357000000     7.490000000
O     1.196000000     0.294000000     6.049000000
H     1.974000000    -0.041000000     5.603000000
H     0.766000000     0.848000000     5.398000000
O    -6.297000000     1.822000000     6.533000000
H    -6.047000000     2.451000000     7.210000000
H    -7.174000000     1.533000000     6.787000000
O    -4.596000000     2.994000000     4.399000000
H    -4.129000000     2.158000000     4.388000000
H    -5.162000000     2.941000000     5.169000000
O    -0.359000000     4.339000000     6.556000000
H    -0.406000000     3.975000000     5.672000000
H    -1.183000000     4.078000000     6.966000000
O    -6.952000000     4.099000000     3.608000000
H    -6.114000000     3.642000000     3.673000000
H    -7.070000000     4.508000000     4.465000000
O    -1.088000000     1.144000000     9.276000000
H    -1.584000000     0.963000000     8.478000000
H    -0.325000000     0.569000000     9.219000000
O    -3.995000000     5.678000000     4.609000000
H    -4.258000000     5.853000000     5.513000000
H    -4.114000000     4.734000000     4.503000000
O    -8.046000000    -1.453000000     4.144000000
H    -7.248000000    -1.011000000     4.435000000
H    -7.802000000    -1.867000000     3.316000000
O    -4.220000000    -2.173000000     6.092000000
H    -3.467000000    -2.037000000     5.516000000
H    -4.862000000    -1.525000000     5.803000000
O    -1.386000000     4.013000000     3.721000000
H    -2.307000000     3.876000000     3.943000000
H    -1.334000000     4.936000000     3.474000000
O    -1.762000000    -2.188000000     9.191000000
H    -1.407000000    -2.063000000     8.311000000
H    -2.702000000    -2.041000000     9.093000000
O    -2.781000000     3.510000000     7.108000000
H    -3.709000000     3.711000000     7.228000000
H    -2.729000000     2.558000000     7.197000000
O     0.656000000     1.928000000     3.699000000
H     1.003000000     1.475000000     2.931000000
H    -0.156000000     2.330000000     3.393000000
O    -5.564000000    -0.232000000     4.818000000
H    -4.651000000    -0.075000000     4.577000000
H    -5.824000000     0.554000000     5.299000000
O    -0.431000000    -1.841000000     6.715000000
H    -1.120000000    -1.573000000     6.108000000
H     0.274000000    -1.209000000     6.573000000
O    -3.646000000    -4.330000000     7.467000000
H    -3.817000000    -3.505000000     7.011000000
H    -2.692000000    -4.404000000     7.479000000
