215
-1458.61487
C    -1.722000000     4.946000000    -1.645000000
H    -2.374000000     4.595000000    -2.440000000
C    -0.357000000     4.489000000    -1.690000000
C     0.478000000     4.971000000    -0.666000000
H     1.525000000     4.690000000    -0.754000000
C    -0.003000000     3.317000000    -2.566000000
O    -0.850000000     3.179000000    -3.752000000
H     0.025000000     2.365000000    -2.015000000
O     1.253000000     3.629000000    -3.035000000
C     2.118000000     2.535000000    -3.252000000
C     3.059000000     2.429000000    -2.228000000
H     3.140000000     3.250000000    -1.520000000
C     3.831000000     1.281000000    -2.161000000
O     4.480000000     1.178000000    -1.043000000
C     3.766000000     0.235000000    -3.193000000
C     4.688000000    -0.963000000    -3.127000000
H     4.919000000    -1.370000000    -4.114000000
C     4.001000000    -2.110000000    -2.324000000
C     3.129000000    -3.074000000    -2.866000000
H     3.070000000    -3.187000000    -3.945000000
H     5.670000000    -0.743000000    -2.703000000
C     2.832000000     0.345000000    -4.251000000
H     2.843000000    -0.378000000    -5.062000000
C     2.009000000     1.475000000    -4.281000000
C     0.894000000     1.525000000    -5.315000000
H     1.150000000     1.037000000    -6.257000000
H     0.881000000     2.586000000    -5.571000000
C    -0.479000000     1.094000000    -4.778000000
C    -0.911000000    -0.221000000    -4.987000000
H    -0.383000000    -0.980000000    -5.559000000
C    -1.280000000     1.932000000    -4.033000000
C    -2.483000000     1.546000000    -3.420000000
H    -3.095000000     2.176000000    -2.778000000
C    -2.843000000     0.280000000    -3.640000000
O    -3.891000000    -0.167000000    -2.976000000
C    -3.627000000    -0.773000000    -1.692000000
C    -4.517000000    -0.259000000    -0.546000000
C    -4.566000000    -0.906000000     0.705000000
H    -3.971000000    -1.809000000     0.818000000
C    -5.208000000     0.974000000    -0.693000000
H    -5.135000000     1.567000000    -1.601000000
O    -3.750000000    -2.198000000    -1.821000000
H    -2.593000000    -0.509000000    -1.424000000
C    -2.114000000    -0.619000000    -4.400000000
C    -2.587000000    -2.047000000    -4.544000000
H    -2.182000000    -2.483000000    -5.460000000
H    -3.675000000    -2.097000000    -4.618000000
C    -2.006000000    -2.876000000    -3.338000000
C    -0.781000000    -3.585000000    -3.537000000
H    -0.437000000    -3.588000000    -4.568000000
C    -2.592000000    -2.873000000    -2.089000000
C    -2.110000000    -3.665000000    -1.038000000
H    -2.627000000    -3.564000000    -0.087000000
C    -0.855000000    -4.287000000    -1.184000000
O    -0.482000000    -4.933000000    -0.096000000
C     0.478000000    -4.228000000     0.774000000
C     0.146000000    -4.316000000     2.291000000
C    -1.148000000    -4.462000000     2.683000000
H    -1.985000000    -4.601000000     2.004000000
C     1.233000000    -4.264000000     3.170000000
H     2.285000000    -4.407000000     2.938000000
O     1.785000000    -4.515000000     0.303000000
H     0.463000000    -3.161000000     0.508000000
C    -0.193000000    -4.281000000    -2.453000000
C     1.263000000    -4.805000000    -2.593000000
H     1.500000000    -4.869000000    -3.657000000
H     1.320000000    -5.807000000    -2.162000000
C     2.308000000    -3.836000000    -2.011000000
C     2.452000000    -3.789000000    -0.651000000
C     3.399000000    -2.916000000    -0.126000000
H     3.447000000    -2.810000000     0.955000000
C     4.164000000    -2.050000000    -0.937000000
O     4.823000000    -1.064000000    -0.327000000
C     4.070000000     0.147000000    -0.090000000
H     2.980000000     0.015000000    -0.033000000
C     4.434000000     0.635000000     1.263000000
C     4.529000000     2.078000000     1.556000000
H     4.319000000     2.799000000     0.769000000
C     4.671000000    -0.261000000     2.317000000
H     4.616000000    -1.340000000     2.192000000
C     4.879000000     0.193000000     3.689000000
O     4.987000000    -0.625000000     4.720000000
C     4.792000000     1.572000000     3.924000000
H     4.832000000     1.984000000     4.929000000
C     4.602000000     2.472000000     2.894000000
O     4.492000000     3.817000000     3.275000000
C     4.018000000     4.883000000     2.502000000
C     2.676000000     5.042000000     2.234000000
H     1.982000000     4.427000000     2.802000000
C     4.922000000     5.737000000     1.922000000
H     5.982000000     5.667000000     2.153000000
C     4.494000000     6.697000000     1.039000000
H     5.207000000     7.371000000     0.571000000
C     3.121000000     6.863000000     0.795000000
H     2.764000000     7.590000000     0.070000000
C     2.232000000     6.073000000     1.393000000
O     0.864000000     6.335000000     1.279000000
C    -0.013000000     5.792000000     0.374000000
C    -1.324000000     6.238000000     0.409000000
H    -1.631000000     6.902000000     1.213000000
C    -2.159000000     5.778000000    -0.601000000
O    -3.471000000     6.196000000    -0.519000000
C    -4.471000000     5.378000000    -1.004000000
C    -4.824000000     4.273000000    -0.199000000
H    -4.246000000     4.137000000     0.711000000
C    -5.183000000     5.665000000    -2.137000000
H    -4.808000000     6.499000000    -2.724000000
C    -6.314000000     4.957000000    -2.466000000
H    -6.902000000     5.162000000    -3.357000000
C    -6.785000000     3.960000000    -1.604000000
H    -7.668000000     3.389000000    -1.880000000
C    -6.023000000     3.656000000    -0.491000000
O    -6.568000000     2.694000000     0.356000000
C    -5.919000000     1.502000000     0.401000000
C    -6.042000000     0.739000000     1.555000000
H    -6.701000000     1.040000000     2.366000000
C    -5.368000000    -0.434000000     1.753000000
O    -5.586000000    -1.069000000     2.954000000
C    -5.290000000    -2.400000000     3.207000000
C    -4.218000000    -2.844000000     4.022000000
H    -3.682000000    -2.033000000     4.508000000
C    -6.097000000    -3.351000000     2.614000000
H    -7.019000000    -3.061000000     2.115000000
C    -5.732000000    -4.681000000     2.652000000
H    -6.438000000    -5.418000000     2.277000000
C    -4.600000000    -5.109000000     3.323000000
H    -4.426000000    -6.179000000     3.407000000
C    -3.785000000    -4.165000000     4.004000000
O    -2.620000000    -4.626000000     4.612000000
C    -1.397000000    -4.336000000     4.016000000
C    -0.367000000    -4.265000000     4.917000000
H    -0.582000000    -4.278000000     5.982000000
C     0.968000000    -4.223000000     4.509000000
O     2.022000000    -4.134000000     5.492000000
C     3.285000000    -3.791000000     5.185000000
C     4.364000000    -4.680000000     5.231000000
H     4.190000000    -5.734000000     5.436000000
C     5.674000000    -4.186000000     5.023000000
H     6.453000000    -4.922000000     4.845000000
C     5.909000000    -2.811000000     4.779000000
H     6.887000000    -2.409000000     4.524000000
C     4.836000000    -1.972000000     4.692000000
C     3.548000000    -2.438000000     4.945000000
H     2.660000000    -1.812000000     4.908000000
C    -1.015000000    -0.467000000     2.708000000
H    -0.857000000    -1.001000000     3.642000000
C    -0.201000000    -0.632000000     1.563000000
H     0.622000000    -1.342000000     1.562000000
C    -0.529000000     0.132000000     0.448000000
H     0.093000000     0.024000000    -0.347000000
C    -1.569000000     1.028000000     0.431000000
H    -1.690000000     1.599000000    -0.486000000
C    -2.363000000     1.226000000     1.562000000
H    -3.182000000     1.940000000     1.558000000
C    -2.051000000     0.459000000     2.709000000
C    -2.784000000     0.749000000     4.046000000
O    -3.916000000     1.243000000     4.104000000
O    -2.143000000     0.775000000     5.096000000
O    -0.789000000     2.634000000     6.754000000
H    -1.152000000     2.588000000     7.639000000
H    -1.129000000     1.854000000     6.315000000
O    -8.308000000     0.442000000     6.666000000
H    -8.949000000     0.889000000     6.114000000
H    -7.489000000     0.494000000     6.172000000
O     1.665000000     1.128000000     4.790000000
H     0.863000000     0.746000000     5.146000000
H     1.429000000     1.395000000     3.902000000
O     0.627000000     2.407000000     2.274000000
H     0.220000000     1.742000000     1.719000000
H     0.018000000     3.146000000     2.248000000
O    -6.048000000     3.900000000     6.712000000
H    -5.491000000     3.373000000     6.139000000
H    -5.867000000     4.804000000     6.455000000
O    -3.092000000     3.631000000     5.550000000
H    -2.940000000     2.766000000     5.169000000
H    -2.477000000     3.682000000     6.281000000
O    -4.646000000    -1.035000000     6.960000000
H    -5.229000000    -0.512000000     6.410000000
H    -3.932000000    -0.438000000     7.187000000
O    -5.340000000     3.337000000     3.335000000
H    -4.578000000     2.924000000     3.742000000
H    -5.522000000     2.798000000     2.566000000
O    -7.632000000     4.779000000     3.717000000
H    -6.810000000     4.291000000     3.760000000
H    -8.190000000     4.368000000     4.379000000
O    -6.055000000     0.620000000     5.273000000
H    -5.227000000     0.968000000     4.943000000
H    -6.439000000     0.165000000     4.523000000
O    -2.374000000     3.386000000     9.048000000
H    -3.256000000     3.462000000     9.411000000
H    -1.904000000     2.835000000     9.673000000
O    -1.126000000    -1.186000000     6.324000000
H    -1.453000000    -0.389000000     5.907000000
H    -1.678000000    -1.296000000     7.098000000
O    -3.299000000     5.738000000     3.224000000
H    -3.865000000     6.485000000     3.031000000
H    -3.750000000     5.273000000     3.929000000
O    -3.120000000    -3.449000000     7.926000000
H    -3.683000000    -2.676000000     7.896000000
H    -2.529000000    -3.345000000     7.180000000
O    -1.005000000     4.366000000     3.283000000
H    -1.753000000     4.851000000     2.934000000
H    -1.259000000     4.143000000     4.178000000
O    -3.252000000     1.210000000     7.449000000
H    -3.277000000     1.334000000     6.500000000
H    -3.273000000     2.098000000     7.806000000
O    -2.178000000    -0.885000000     8.957000000
H    -2.600000000    -0.085000000     8.645000000
H    -2.368000000    -0.906000000     9.895000000
O     1.805000000     3.466000000     7.473000000
H     1.252000000     3.088000000     6.788000000
H     1.387000000     3.200000000     8.292000000
O     0.982000000    -0.166000000     7.980000000
H     0.342000000     0.157000000     8.614000000
H     0.463000000    -0.665000000     7.349000000
