215
-1420.34868
C    -1.163000000     4.505000000    -1.531000000
H    -1.853000000     4.115000000    -2.275000000
C     0.166000000     4.144000000    -1.608000000
C     1.031000000     4.620000000    -0.607000000
H     2.049000000     4.267000000    -0.468000000
C     0.700000000     3.130000000    -2.603000000
O    -0.038000000     3.063000000    -3.879000000
H     0.580000000     2.203000000    -2.022000000
O     2.167000000     3.249000000    -2.822000000
C     2.966000000     2.108000000    -2.729000000
C     3.844000000     2.001000000    -1.698000000
H     3.961000000     2.816000000    -0.988000000
C     4.508000000     0.806000000    -1.533000000
O     5.273000000     0.709000000    -0.425000000
C     4.406000000    -0.275000000    -2.417000000
C     5.000000000    -1.661000000    -2.171000000
H     5.074000000    -2.002000000    -3.206000000
C     4.088000000    -2.479000000    -1.257000000
C     3.191000000    -3.388000000    -1.843000000
H     3.204000000    -3.446000000    -2.928000000
H     6.010000000    -1.524000000    -1.779000000
C     3.595000000    -0.125000000    -3.496000000
H     3.553000000    -0.876000000    -4.281000000
C     2.862000000     1.114000000    -3.619000000
C     1.991000000     1.218000000    -4.915000000
H     2.495000000     0.616000000    -5.674000000
H     2.070000000     2.216000000    -5.353000000
C     0.507000000     0.817000000    -4.780000000
C     0.017000000    -0.501000000    -5.110000000
H     0.684000000    -1.265000000    -5.500000000
C    -0.391000000     1.774000000    -4.265000000
C    -1.719000000     1.423000000    -4.034000000
H    -2.367000000     2.139000000    -3.535000000
C    -2.138000000     0.112000000    -4.291000000
O    -3.351000000    -0.145000000    -3.717000000
C    -3.447000000    -0.853000000    -2.423000000
C    -4.655000000    -0.425000000    -1.519000000
C    -5.339000000    -1.330000000    -0.642000000
H    -4.828000000    -2.276000000    -0.482000000
C    -5.146000000     0.850000000    -1.737000000
H    -4.630000000     1.544000000    -2.395000000
O    -3.540000000    -2.191000000    -2.734000000
H    -2.549000000    -0.740000000    -1.798000000
C    -1.322000000    -0.885000000    -4.813000000
C    -1.683000000    -2.311000000    -4.898000000
H    -1.127000000    -2.828000000    -5.682000000
H    -2.713000000    -2.377000000    -5.253000000
C    -1.465000000    -3.008000000    -3.564000000
C    -0.388000000    -3.832000000    -3.345000000
H     0.319000000    -3.953000000    -4.161000000
C    -2.435000000    -2.959000000    -2.555000000
C    -2.277000000    -3.632000000    -1.364000000
H    -3.097000000    -3.622000000    -0.651000000
C    -1.041000000    -4.219000000    -1.032000000
O    -0.836000000    -4.895000000     0.109000000
C    -0.052000000    -4.110000000     1.096000000
C    -0.675000000    -3.966000000     2.513000000
C    -2.051000000    -4.273000000     2.698000000
H    -2.705000000    -4.731000000     1.960000000
C     0.100000000    -3.372000000     3.541000000
H     1.100000000    -3.012000000     3.315000000
O     1.362000000    -4.560000000     1.097000000
H    -0.125000000    -3.079000000     0.719000000
C    -0.091000000    -4.351000000    -2.092000000
C     1.258000000    -4.920000000    -1.906000000
H     1.754000000    -5.176000000    -2.845000000
H     1.117000000    -5.894000000    -1.433000000
C     2.159000000    -4.015000000    -1.104000000
C     2.239000000    -3.910000000     0.316000000
C     3.215000000    -3.081000000     0.846000000
H     3.145000000    -2.897000000     1.915000000
C     4.184000000    -2.342000000     0.153000000
O     4.977000000    -1.360000000     0.828000000
C     4.690000000     0.035000000     0.728000000
H     3.609000000     0.169000000     0.576000000
C     4.899000000     0.789000000     2.057000000
C     5.169000000     2.134000000     2.018000000
H     5.327000000     2.618000000     1.058000000
C     4.547000000     0.161000000     3.247000000
H     4.382000000    -0.913000000     3.229000000
C     4.601000000     0.835000000     4.457000000
O     4.343000000     0.271000000     5.680000000
C     5.031000000     2.165000000     4.430000000
H     5.136000000     2.739000000     5.346000000
C     5.191000000     2.828000000     3.222000000
O     5.462000000     4.196000000     3.178000000
C     4.835000000     4.929000000     2.174000000
C     3.434000000     5.081000000     2.188000000
H     2.846000000     4.550000000     2.932000000
C     5.636000000     5.530000000     1.199000000
H     6.711000000     5.452000000     1.340000000
C     4.945000000     6.354000000     0.259000000
H     5.554000000     6.982000000    -0.386000000
C     3.623000000     6.563000000     0.334000000
H     3.147000000     7.211000000    -0.397000000
C     2.864000000     5.806000000     1.225000000
O     1.525000000     6.064000000     1.262000000
C     0.647000000     5.558000000     0.291000000
C    -0.685000000     5.903000000     0.344000000
H    -1.022000000     6.559000000     1.142000000
C    -1.622000000     5.333000000    -0.512000000
O    -2.990000000     5.608000000    -0.443000000
C    -4.034000000     5.119000000    -1.138000000
C    -4.847000000     4.131000000    -0.618000000
H    -4.508000000     3.690000000     0.316000000
C    -4.194000000     5.643000000    -2.380000000
H    -3.498000000     6.426000000    -2.670000000
C    -5.236000000     5.207000000    -3.182000000
H    -5.627000000     5.619000000    -4.109000000
C    -6.160000000     4.271000000    -2.607000000
H    -7.142000000     4.125000000    -3.051000000
C    -5.875000000     3.652000000    -1.397000000
O    -6.698000000     2.559000000    -1.005000000
C    -6.275000000     1.280000000    -0.985000000
C    -6.798000000     0.404000000    -0.004000000
H    -7.603000000     0.730000000     0.650000000
C    -6.347000000    -0.812000000     0.178000000
O    -6.877000000    -1.610000000     1.074000000
C    -6.365000000    -2.829000000     1.532000000
C    -5.308000000    -2.832000000     2.534000000
H    -4.921000000    -1.867000000     2.852000000
C    -7.075000000    -3.996000000     1.262000000
H    -7.937000000    -3.955000000     0.601000000
C    -6.653000000    -5.191000000     1.814000000
H    -7.111000000    -6.157000000     1.616000000
C    -5.619000000    -5.191000000     2.804000000
H    -5.247000000    -6.100000000     3.270000000
C    -4.931000000    -4.009000000     3.155000000
O    -3.979000000    -4.049000000     4.114000000
C    -2.636000000    -3.884000000     3.912000000
C    -1.835000000    -3.280000000     4.954000000
H    -2.363000000    -2.908000000     5.828000000
C    -0.480000000    -2.983000000     4.766000000
O     0.132000000    -2.160000000     5.655000000
C     1.530000000    -2.119000000     5.725000000
C     2.224000000    -3.232000000     6.087000000
H     1.646000000    -4.119000000     6.334000000
C     3.591000000    -3.246000000     6.363000000
H     4.054000000    -4.210000000     6.556000000
C     4.349000000    -2.081000000     6.290000000
H     5.414000000    -2.095000000     6.508000000
C     3.672000000    -0.946000000     5.784000000
C     2.277000000    -0.944000000     5.635000000
H     1.742000000    -0.007000000     5.504000000
C    -0.099000000    -0.178000000     2.112000000
H     0.303000000    -0.606000000     3.027000000
C     0.567000000    -0.440000000     0.924000000
H     1.501000000    -0.995000000     0.957000000
C     0.074000000     0.135000000    -0.264000000
H     0.638000000     0.049000000    -1.132000000
C    -1.040000000     0.924000000    -0.186000000
H    -1.364000000     1.409000000    -1.104000000
C    -1.693000000     1.175000000     0.951000000
H    -2.562000000     1.821000000     1.051000000
C    -1.229000000     0.676000000     2.139000000
C    -1.841000000     0.946000000     3.510000000
O    -3.044000000     1.319000000     3.573000000
O    -1.015000000     1.111000000     4.421000000
O     0.121000000     6.009000000     4.718000000
H     0.620000000     5.800000000     5.507000000
H    -0.171000000     5.159000000     4.387000000
O    -4.412000000    -1.769000000     9.936000000
H    -4.044000000    -1.309000000     9.181000000
H    -3.649000000    -2.025000000    10.455000000
O    -0.764000000     3.715000000     3.699000000
H    -0.356000000     2.883000000     3.940000000
H    -1.457000000     3.472000000     3.084000000
O    -0.187000000     3.589000000     6.922000000
H    -0.393000000     2.697000000     7.202000000
H     0.588000000     3.827000000     7.431000000
O    -7.714000000     3.977000000     3.772000000
H    -7.969000000     4.201000000     2.877000000
H    -6.924000000     3.447000000     3.670000000
O    -2.685000000     6.499000000     3.921000000
H    -3.188000000     5.696000000     3.784000000
H    -1.823000000     6.196000000     4.208000000
O    -6.879000000    -0.043000000     7.637000000
H    -6.548000000     0.526000000     8.332000000
H    -6.331000000     0.160000000     6.879000000
O    -3.744000000    -4.562000000     7.346000000
H    -4.161000000    -4.261000000     6.539000000
H    -4.399000000    -4.409000000     8.026000000
O    -8.321000000    -0.200000000     3.575000000
H    -8.728000000    -0.277000000     4.438000000
H    -7.380000000    -0.235000000     3.750000000
O     2.016000000    -0.058000000     8.340000000
H     2.348000000     0.463000000     7.609000000
H     1.141000000     0.292000000     8.506000000
O    -5.576000000     0.398000000     3.958000000
H    -4.989000000     0.030000000     4.618000000
H    -5.003000000     0.902000000     3.380000000
O    -3.079000000     1.870000000     9.822000000
H    -2.568000000     1.331000000     9.219000000
H    -2.586000000     1.843000000    10.643000000
O    -3.687000000     1.406000000     6.525000000
H    -3.851000000     2.293000000     6.844000000
H    -3.479000000     1.520000000     5.597000000
O    -5.267000000    -2.479000000     6.352000000
H    -5.307000000    -1.803000000     7.028000000
H    -6.128000000    -2.895000000     6.379000000
O    -0.436000000     0.660000000     6.954000000
H    -0.294000000    -0.279000000     6.828000000
H    -0.555000000     1.005000000     6.069000000
O    -3.158000000     4.088000000     6.514000000
H    -2.208000000     3.979000000     6.539000000
H    -3.418000000     4.140000000     7.434000000
O    -3.100000000    -0.768000000     8.007000000
H    -2.816000000    -1.415000000     7.361000000
H    -3.360000000    -0.008000000     7.486000000
O    -3.928000000     3.829000000     3.664000000
H    -3.644000000     2.936000000     3.467000000
H    -3.958000000     3.865000000     4.620000000
O    -5.161000000     3.843000000     8.619000000
H    -5.351000000     3.039000000     9.103000000
H    -5.853000000     4.450000000     8.882000000
