215
-1464.29138
C    -1.055000000     4.117000000    -0.915000000
H    -1.733000000     3.505000000    -1.503000000
C     0.297000000     4.125000000    -1.255000000
C     1.163000000     4.915000000    -0.524000000
H     2.236000000     4.792000000    -0.644000000
C     0.829000000     3.141000000    -2.296000000
O     0.091000000     3.041000000    -3.462000000
H     0.608000000     2.169000000    -1.832000000
O     2.237000000     3.318000000    -2.664000000
C     3.143000000     2.285000000    -2.516000000
C     3.884000000     2.169000000    -1.362000000
H     3.869000000     2.955000000    -0.611000000
C     4.496000000     0.935000000    -1.167000000
O     5.094000000     0.698000000     0.068000000
C     4.501000000    -0.118000000    -2.078000000
C     5.145000000    -1.508000000    -1.932000000
H     5.416000000    -1.999000000    -2.869000000
C     4.141000000    -2.436000000    -1.101000000
C     3.368000000    -3.284000000    -1.870000000
H     3.436000000    -3.252000000    -2.954000000
H     6.120000000    -1.430000000    -1.448000000
C     3.856000000     0.161000000    -3.297000000
H     3.828000000    -0.692000000    -3.969000000
C     3.087000000     1.268000000    -3.470000000
C     2.253000000     1.385000000    -4.745000000
H     2.674000000     0.761000000    -5.537000000
H     2.172000000     2.415000000    -5.099000000
C     0.798000000     0.963000000    -4.564000000
C     0.308000000    -0.280000000    -4.987000000
H     1.023000000    -0.978000000    -5.415000000
C    -0.153000000     1.814000000    -3.999000000
C    -1.547000000     1.496000000    -4.049000000
H    -2.278000000     2.158000000    -3.593000000
C    -1.914000000     0.210000000    -4.387000000
O    -3.114000000    -0.248000000    -4.148000000
C    -3.360000000    -0.895000000    -2.901000000
C    -4.528000000    -0.280000000    -2.178000000
C    -5.131000000    -1.007000000    -1.149000000
H    -4.741000000    -1.956000000    -0.790000000
C    -4.942000000     1.034000000    -2.422000000
H    -4.406000000     1.571000000    -3.200000000
O    -3.480000000    -2.306000000    -3.069000000
H    -2.530000000    -0.750000000    -2.193000000
C    -0.990000000    -0.645000000    -4.912000000
C    -1.313000000    -2.058000000    -5.159000000
H    -0.689000000    -2.507000000    -5.935000000
H    -2.344000000    -2.053000000    -5.518000000
C    -1.178000000    -2.861000000    -3.831000000
C     0.060000000    -3.532000000    -3.584000000
H     0.936000000    -3.388000000    -4.211000000
C    -2.316000000    -3.071000000    -2.985000000
C    -2.137000000    -3.872000000    -1.883000000
H    -2.997000000    -3.923000000    -1.220000000
C    -0.928000000    -4.474000000    -1.601000000
O    -0.790000000    -4.977000000    -0.380000000
C    -0.031000000    -4.256000000     0.698000000
C    -0.693000000    -4.170000000     2.018000000
C    -2.066000000    -4.336000000     2.075000000
H    -2.678000000    -4.535000000     1.199000000
C     0.042000000    -3.808000000     3.172000000
H     1.065000000    -3.441000000     3.189000000
O     1.270000000    -4.798000000     0.789000000
H     0.124000000    -3.216000000     0.376000000
C     0.192000000    -4.277000000    -2.428000000
C     1.540000000    -5.023000000    -2.175000000
H     2.071000000    -5.344000000    -3.074000000
H     1.283000000    -5.971000000    -1.698000000
C     2.457000000    -4.205000000    -1.308000000
C     2.308000000    -4.155000000     0.101000000
C     3.145000000    -3.297000000     0.934000000
H     3.013000000    -3.157000000     2.004000000
C     4.083000000    -2.458000000     0.322000000
O     4.656000000    -1.474000000     1.114000000
C     4.203000000    -0.119000000     0.980000000
H     3.192000000    -0.173000000     0.550000000
C     4.060000000     0.602000000     2.338000000
C     4.401000000     1.962000000     2.501000000
H     4.767000000     2.498000000     1.629000000
C     3.665000000    -0.098000000     3.472000000
H     3.429000000    -1.156000000     3.399000000
C     3.677000000     0.519000000     4.717000000
O     3.508000000    -0.126000000     5.930000000
C     4.058000000     1.843000000     4.852000000
H     3.998000000     2.302000000     5.836000000
C     4.430000000     2.573000000     3.729000000
O     4.727000000     3.886000000     3.848000000
C     4.370000000     4.792000000     2.835000000
C     3.077000000     5.108000000     2.584000000
H     2.330000000     4.583000000     3.173000000
C     5.421000000     5.529000000     2.223000000
H     6.453000000     5.237000000     2.400000000
C     5.104000000     6.601000000     1.379000000
H     5.898000000     7.160000000     0.891000000
C     3.829000000     6.898000000     1.086000000
H     3.570000000     7.610000000     0.306000000
C     2.798000000     6.146000000     1.661000000
O     1.513000000     6.475000000     1.285000000
C     0.690000000     5.669000000     0.562000000
C    -0.643000000     5.520000000     0.988000000
H    -1.072000000     6.047000000     1.836000000
C    -1.477000000     4.780000000     0.209000000
O    -2.774000000     4.843000000     0.615000000
C    -3.733000000     4.924000000    -0.308000000
C    -4.538000000     3.839000000    -0.616000000
H    -4.453000000     2.868000000    -0.136000000
C    -3.958000000     6.115000000    -0.948000000
H    -3.168000000     6.854000000    -0.842000000
C    -5.120000000     6.271000000    -1.766000000
H    -5.416000000     7.271000000    -2.073000000
C    -5.914000000     5.203000000    -2.084000000
H    -6.772000000     5.306000000    -2.743000000
C    -5.587000000     3.998000000    -1.508000000
O    -6.358000000     2.876000000    -1.873000000
C    -5.953000000     1.587000000    -1.673000000
C    -6.604000000     0.842000000    -0.685000000
H    -7.312000000     1.420000000    -0.096000000
C    -6.094000000    -0.411000000    -0.370000000
O    -6.469000000    -1.039000000     0.777000000
C    -6.205000000    -2.314000000     1.139000000
C    -5.249000000    -2.595000000     2.091000000
H    -4.714000000    -1.808000000     2.618000000
C    -6.935000000    -3.288000000     0.507000000
H    -7.707000000    -3.002000000    -0.203000000
C    -6.812000000    -4.656000000     0.949000000
H    -7.489000000    -5.443000000     0.628000000
C    -5.782000000    -4.975000000     1.899000000
H    -5.533000000    -5.937000000     2.338000000
C    -5.043000000    -3.914000000     2.410000000
O    -4.090000000    -4.175000000     3.394000000
C    -2.700000000    -4.144000000     3.329000000
C    -2.018000000    -3.842000000     4.435000000
H    -2.582000000    -3.751000000     5.360000000
C    -0.612000000    -3.755000000     4.408000000
O    -0.088000000    -3.193000000     5.517000000
C     1.229000000    -2.994000000     5.647000000
C     2.149000000    -3.994000000     5.488000000
H     1.773000000    -4.982000000     5.236000000
C     3.534000000    -3.789000000     5.542000000
H     4.263000000    -4.555000000     5.291000000
C     3.965000000    -2.474000000     5.737000000
H     5.034000000    -2.419000000     5.552000000
C     3.039000000    -1.441000000     5.891000000
C     1.679000000    -1.727000000     5.919000000
H     0.930000000    -0.947000000     6.032000000
C    -0.441000000    -0.568000000     2.373000000
H     0.045000000    -0.834000000     3.308000000
C     0.369000000    -0.791000000     1.237000000
H     1.397000000    -1.141000000     1.297000000
C    -0.093000000    -0.458000000    -0.037000000
H     0.498000000    -0.499000000    -0.938000000
C    -1.321000000     0.198000000    -0.136000000
H    -1.759000000     0.634000000    -1.030000000
C    -2.175000000     0.326000000     0.996000000
H    -3.227000000     0.596000000     0.954000000
C    -1.715000000    -0.066000000     2.260000000
C    -2.625000000     0.125000000     3.497000000
O    -3.607000000     0.821000000     3.437000000
O    -2.305000000    -0.437000000     4.569000000
O     0.025000000     1.085000000     5.193000000
H    -0.850000000     0.722000000     5.060000000
H     0.082000000     1.809000000     4.570000000
O    -0.172000000     4.050000000     3.862000000
H     0.096000000     3.588000000     3.067000000
H    -1.027000000     3.678000000     4.079000000
O     0.371000000     2.373000000     1.762000000
H     0.243000000     1.431000000     1.872000000
H     0.055000000     2.556000000     0.877000000
O    -3.817000000     5.210000000     6.237000000
H    -3.549000000     4.307000000     6.067000000
H    -4.035000000     5.562000000     5.374000000
O    -6.520000000    -0.355000000     7.268000000
H    -6.215000000     0.462000000     6.874000000
H    -6.586000000    -0.966000000     6.534000000
O    -5.377000000     1.671000000     5.693000000
H    -6.243000000     2.024000000     5.487000000
H    -5.122000000     1.188000000     4.907000000
O    -5.517000000    -5.086000000     6.241000000
H    -5.646000000    -4.550000000     7.023000000
H    -4.883000000    -4.597000000     5.717000000
O    -7.039000000    -1.501000000     4.500000000
H    -6.881000000    -0.747000000     3.931000000
H    -6.170000000    -1.752000000     4.813000000
O    -4.989000000     2.553000000     2.127000000
H    -4.547000000     3.345000000     2.436000000
H    -4.553000000     1.839000000     2.592000000
O     0.628000000     0.520000000     7.860000000
H     1.400000000     1.082000000     7.804000000
H     0.268000000     0.518000000     6.973000000
O    -4.441000000    -1.770000000     5.422000000
H    -3.623000000    -1.571000000     4.967000000
H    -4.219000000    -1.712000000     6.351000000
O    -7.760000000     2.405000000     5.100000000
H    -8.197000000     2.026000000     5.863000000
H    -7.910000000     3.347000000     5.182000000
O    -6.702000000     0.788000000     3.248000000
H    -7.074000000     1.313000000     3.956000000
H    -6.298000000     1.429000000     2.662000000
O    -2.881000000    -3.106000000     7.802000000
H    -2.497000000    -2.243000000     7.648000000
H    -3.579000000    -2.947000000     8.437000000
O    -3.238000000     0.023000000     6.914000000
H    -2.711000000    -0.195000000     6.146000000
H    -3.703000000     0.822000000     6.667000000
O    -8.988000000     0.423000000     1.505000000
H    -8.124000000     0.210000000     1.857000000
H    -9.011000000    -0.005000000     0.649000000
O    -2.402000000     2.798000000     4.640000000
H    -2.412000000     2.588000000     5.574000000
H    -3.024000000     2.182000000     4.251000000
O    -2.471000000     2.777000000     7.532000000
H    -3.190000000     2.987000000     8.128000000
H    -1.756000000     2.504000000     8.106000000
O    -1.712000000     0.160000000     9.240000000
H    -0.938000000     0.231000000     8.682000000
H    -2.450000000     0.175000000     8.630000000
