215
-1447.85386
C    -1.398000000     5.072000000    -1.571000000
H    -2.085000000     4.618000000    -2.280000000
C    -0.079000000     4.743000000    -1.614000000
C     0.832000000     5.417000000    -0.791000000
H     1.870000000     5.102000000    -0.719000000
C     0.438000000     3.559000000    -2.533000000
O    -0.292000000     3.405000000    -3.840000000
H     0.185000000     2.653000000    -1.962000000
O     1.761000000     3.740000000    -2.754000000
C     2.569000000     2.594000000    -2.613000000
C     3.403000000     2.448000000    -1.555000000
H     3.457000000     3.244000000    -0.816000000
C     4.207000000     1.370000000    -1.418000000
O     4.868000000     1.190000000    -0.186000000
C     4.302000000     0.376000000    -2.363000000
C     5.059000000    -0.977000000    -2.223000000
H     5.384000000    -1.489000000    -3.131000000
C     4.092000000    -1.934000000    -1.407000000
C     3.311000000    -2.815000000    -2.221000000
H     3.335000000    -2.808000000    -3.307000000
H     5.970000000    -0.872000000    -1.629000000
C     3.485000000     0.498000000    -3.476000000
H     3.476000000    -0.198000000    -4.311000000
C     2.645000000     1.642000000    -3.626000000
C     1.786000000     1.730000000    -4.894000000
H     2.190000000     1.062000000    -5.658000000
H     1.702000000     2.741000000    -5.295000000
C     0.326000000     1.237000000    -4.731000000
C     0.000000000    -0.101000000    -4.954000000
H     0.738000000    -0.777000000    -5.379000000
C    -0.603000000     2.099000000    -4.246000000
C    -1.879000000     1.652000000    -3.832000000
H    -2.533000000     2.427000000    -3.442000000
C    -2.214000000     0.300000000    -4.014000000
O    -3.436000000    -0.122000000    -3.548000000
C    -3.344000000    -0.876000000    -2.355000000
C    -4.331000000    -0.504000000    -1.196000000
C    -4.810000000    -1.409000000    -0.287000000
H    -4.487000000    -2.444000000    -0.360000000
C    -4.599000000     0.819000000    -1.090000000
H    -4.082000000     1.516000000    -1.745000000
O    -3.388000000    -2.295000000    -2.753000000
H    -2.377000000    -0.664000000    -1.876000000
C    -1.311000000    -0.619000000    -4.652000000
C    -1.714000000    -1.974000000    -5.007000000
H    -1.305000000    -2.287000000    -5.970000000
H    -2.793000000    -2.033000000    -5.166000000
C    -1.268000000    -2.819000000    -3.836000000
C    -0.060000000    -3.458000000    -3.725000000
H     0.753000000    -3.288000000    -4.426000000
C    -2.149000000    -2.929000000    -2.705000000
C    -1.852000000    -3.708000000    -1.611000000
H    -2.655000000    -3.921000000    -0.909000000
C    -0.672000000    -4.363000000    -1.524000000
O    -0.455000000    -5.110000000    -0.357000000
C     0.239000000    -4.421000000     0.695000000
C    -0.281000000    -4.737000000     2.077000000
C    -1.638000000    -5.007000000     2.315000000
H    -2.274000000    -5.162000000     1.447000000
C     0.519000000    -4.530000000     3.202000000
H     1.588000000    -4.356000000     3.110000000
O     1.684000000    -4.690000000     0.561000000
H     0.067000000    -3.338000000     0.609000000
C     0.280000000    -4.129000000    -2.573000000
C     1.660000000    -4.707000000    -2.449000000
H     2.014000000    -4.839000000    -3.473000000
H     1.620000000    -5.708000000    -2.014000000
C     2.503000000    -3.807000000    -1.616000000
C     2.539000000    -3.917000000    -0.206000000
C     3.265000000    -2.973000000     0.544000000
H     3.240000000    -3.122000000     1.621000000
C     4.003000000    -1.997000000    -0.066000000
O     4.630000000    -1.056000000     0.759000000
C     4.187000000     0.323000000     0.749000000
H     3.193000000     0.257000000     0.282000000
C     3.985000000     0.775000000     2.201000000
C     4.047000000     2.128000000     2.419000000
H     4.254000000     2.840000000     1.625000000
C     3.614000000    -0.033000000     3.265000000
H     3.506000000    -1.109000000     3.149000000
C     3.451000000     0.504000000     4.566000000
O     3.053000000    -0.258000000     5.708000000
C     3.506000000     1.909000000     4.786000000
H     3.289000000     2.494000000     5.676000000
C     3.808000000     2.690000000     3.691000000
O     3.908000000     4.075000000     3.807000000
C     3.710000000     5.029000000     2.843000000
C     2.460000000     5.427000000     2.467000000
H     1.585000000     4.985000000     2.936000000
C     4.821000000     5.559000000     2.271000000
H     5.788000000     5.193000000     2.607000000
C     4.717000000     6.479000000     1.189000000
H     5.572000000     6.882000000     0.652000000
C     3.464000000     7.004000000     0.919000000
H     3.315000000     7.736000000     0.129000000
C     2.308000000     6.455000000     1.514000000
O     1.036000000     6.995000000     1.140000000
C     0.331000000     6.389000000     0.139000000
C    -0.990000000     6.780000000     0.033000000
H    -1.444000000     7.469000000     0.740000000
C    -1.909000000     6.158000000    -0.836000000
O    -3.230000000     6.539000000    -0.833000000
C    -4.210000000     5.699000000    -1.100000000
C    -4.329000000     4.586000000    -0.318000000
H    -3.625000000     4.480000000     0.503000000
C    -5.038000000     5.935000000    -2.201000000
H    -4.896000000     6.884000000    -2.711000000
C    -6.059000000     5.040000000    -2.498000000
H    -6.739000000     5.359000000    -3.283000000
C    -6.257000000     3.913000000    -1.654000000
H    -7.139000000     3.307000000    -1.846000000
C    -5.302000000     3.663000000    -0.658000000
O    -5.581000000     2.604000000     0.189000000
C    -5.414000000     1.317000000    -0.047000000
C    -5.992000000     0.431000000     0.879000000
H    -6.697000000     0.741000000     1.646000000
C    -5.600000000    -0.943000000     0.778000000
O    -6.132000000    -1.874000000     1.633000000
C    -5.608000000    -3.093000000     1.731000000
C    -4.858000000    -3.521000000     2.804000000
H    -4.487000000    -2.837000000     3.563000000
C    -6.031000000    -4.086000000     0.824000000
H    -6.640000000    -3.705000000     0.009000000
C    -5.535000000    -5.417000000     0.908000000
H    -5.728000000    -6.046000000     0.043000000
C    -4.780000000    -5.783000000     1.958000000
H    -4.478000000    -6.825000000     2.019000000
C    -4.457000000    -4.830000000     2.893000000
O    -3.522000000    -5.121000000     3.900000000
C    -2.150000000    -4.987000000     3.615000000
C    -1.325000000    -4.893000000     4.704000000
H    -1.764000000    -4.812000000     5.695000000
C     0.029000000    -4.660000000     4.518000000
O     0.862000000    -4.453000000     5.576000000
C     2.055000000    -3.792000000     5.501000000
C     3.315000000    -4.417000000     5.408000000
H     3.389000000    -5.501000000     5.420000000
C     4.482000000    -3.687000000     5.387000000
H     5.458000000    -4.152000000     5.282000000
C     4.387000000    -2.316000000     5.602000000
H     5.327000000    -1.809000000     5.802000000
C     3.154000000    -1.630000000     5.668000000
C     1.994000000    -2.463000000     5.659000000
H     1.007000000    -2.010000000     5.691000000
C    -0.580000000    -1.037000000     3.317000000
H    -0.488000000    -1.315000000     4.364000000
C     0.510000000    -1.327000000     2.430000000
H     1.461000000    -1.783000000     2.694000000
C     0.396000000    -1.050000000     1.081000000
H     1.254000000    -1.340000000     0.429000000
C    -0.689000000    -0.458000000     0.545000000
H    -0.751000000    -0.289000000    -0.527000000
C    -1.725000000    -0.024000000     1.433000000
H    -2.582000000     0.520000000     1.044000000
C    -1.689000000    -0.326000000     2.832000000
C    -2.810000000    -0.008000000     3.786000000
O    -3.784000000     0.660000000     3.454000000
O    -2.759000000    -0.361000000     4.959000000
O    -0.759000000     1.618000000     5.888000000
H    -1.284000000     0.831000000     5.742000000
H    -0.948000000     2.176000000     5.133000000
O    -8.274000000    -1.839000000     5.757000000
H    -8.963000000    -2.070000000     5.134000000
H    -7.702000000    -1.244000000     5.271000000
O    -0.347000000     3.118000000     3.456000000
H     0.017000000     2.877000000     2.604000000
H    -1.244000000     3.392000000     3.264000000
O     0.995000000     2.452000000     1.106000000
H     1.948000000     2.529000000     1.071000000
H     0.831000000     1.509000000     1.117000000
O    -5.586000000     3.668000000     5.771000000
H    -5.897000000     4.536000000     5.514000000
H    -5.932000000     3.081000000     5.099000000
O    -6.160000000    -0.331000000     7.521000000
H    -5.410000000     0.100000000     7.112000000
H    -6.487000000    -0.931000000     6.851000000
O    -4.190000000     1.218000000     6.368000000
H    -4.226000000     2.068000000     5.929000000
H    -3.726000000     0.650000000     5.753000000
O    -3.139000000     4.667000000     6.675000000
H    -2.295000000     4.895000000     6.287000000
H    -3.679000000     4.397000000     5.932000000
O    -6.434000000     2.055000000     3.755000000
H    -7.206000000     1.661000000     4.161000000
H    -5.751000000     1.391000000     3.843000000
O     1.474000000     2.823000000     7.346000000
H     1.995000000     2.153000000     7.788000000
H     0.827000000     2.330000000     6.842000000
O    -5.993000000    -0.723000000     4.517000000
H    -5.404000000    -0.981000000     5.226000000
H    -5.417000000    -0.349000000     3.851000000
O    -5.190000000    -3.144000000     6.860000000
H    -4.419000000    -2.594000000     6.997000000
H    -5.741000000    -2.980000000     7.626000000
O    -2.722000000    -1.792000000     7.013000000
H    -2.794000000    -1.353000000     6.166000000
H    -2.122000000    -1.243000000     7.517000000
O    -8.600000000    -0.299000000     2.122000000
H    -7.964000000    -0.914000000     1.757000000
H    -8.949000000     0.165000000     1.361000000
O    -5.369000000     5.053000000     2.753000000
H    -5.963000000     4.423000000     2.346000000
H    -5.824000000     5.333000000     3.547000000
O    -5.125000000     2.972000000     8.449000000
H    -4.901000000     3.654000000     7.815000000
H    -4.785000000     2.165000000     8.062000000
O    -2.984000000     3.401000000     3.729000000
H    -3.549000000     4.001000000     3.243000000
H    -3.390000000     2.541000000     3.611000000
O    -0.602000000     5.197000000     5.366000000
H    -0.125000000     4.641000000     4.750000000
H     0.056000000     5.807000000     5.699000000
O    -1.219000000    -0.226000000     9.284000000
H    -0.477000000    -0.812000000     9.432000000
H    -0.820000000     0.599000000     9.007000000
