215
-1474.58423
C    -1.363000000     4.583000000    -1.644000000
H    -1.925000000     4.064000000    -2.417000000
C    -0.014000000     4.197000000    -1.374000000
C     0.722000000     4.761000000    -0.293000000
H     1.783000000     4.544000000    -0.203000000
C     0.565000000     3.204000000    -2.258000000
O    -0.090000000     3.127000000    -3.480000000
H     0.535000000     2.194000000    -1.824000000
O     1.964000000     3.538000000    -2.520000000
C     2.787000000     2.393000000    -2.687000000
C     3.535000000     2.179000000    -1.573000000
H     3.615000000     3.002000000    -0.868000000
C     4.271000000     1.042000000    -1.389000000
O     4.969000000     0.801000000    -0.218000000
C     4.268000000     0.068000000    -2.371000000
C     5.100000000    -1.234000000    -2.286000000
H     5.301000000    -1.665000000    -3.269000000
C     4.339000000    -2.325000000    -1.440000000
C     3.530000000    -3.336000000    -2.044000000
H     3.523000000    -3.402000000    -3.129000000
H     6.099000000    -1.011000000    -1.906000000
C     3.442000000     0.226000000    -3.487000000
H     3.269000000    -0.596000000    -4.177000000
C     2.778000000     1.466000000    -3.693000000
C     1.865000000     1.486000000    -4.870000000
H     2.349000000     1.038000000    -5.741000000
H     1.839000000     2.508000000    -5.253000000
C     0.440000000     1.066000000    -4.542000000
C     0.113000000    -0.227000000    -4.860000000
H     0.835000000    -0.895000000    -5.322000000
C    -0.498000000     1.894000000    -3.843000000
C    -1.795000000     1.383000000    -3.651000000
H    -2.455000000     2.054000000    -3.107000000
C    -2.140000000     0.092000000    -3.955000000
O    -3.378000000    -0.396000000    -3.692000000
C    -3.353000000    -1.069000000    -2.431000000
C    -4.381000000    -0.544000000    -1.505000000
C    -4.903000000    -1.308000000    -0.525000000
H    -4.709000000    -2.378000000    -0.526000000
C    -4.763000000     0.776000000    -1.494000000
H    -4.328000000     1.432000000    -2.243000000
O    -3.457000000    -2.475000000    -2.637000000
H    -2.417000000    -0.861000000    -1.892000000
C    -1.136000000    -0.727000000    -4.510000000
C    -1.543000000    -2.176000000    -4.836000000
H    -0.966000000    -2.484000000    -5.711000000
H    -2.579000000    -2.346000000    -5.138000000
C    -1.172000000    -2.955000000    -3.574000000
C     0.049000000    -3.567000000    -3.455000000
H     0.837000000    -3.517000000    -4.202000000
C    -2.184000000    -3.031000000    -2.583000000
C    -1.955000000    -3.693000000    -1.398000000
H    -2.716000000    -3.614000000    -0.626000000
C    -0.710000000    -4.330000000    -1.256000000
O    -0.446000000    -4.864000000    -0.046000000
C     0.267000000    -3.982000000     0.869000000
C    -0.437000000    -4.181000000     2.205000000
C    -1.757000000    -4.519000000     2.402000000
H    -2.444000000    -4.671000000     1.574000000
C     0.297000000    -3.985000000     3.355000000
H     1.314000000    -3.653000000     3.163000000
O     1.608000000    -4.508000000     0.849000000
H     0.212000000    -2.928000000     0.560000000
C     0.274000000    -4.331000000    -2.250000000
C     1.612000000    -4.948000000    -2.051000000
H     1.967000000    -5.131000000    -3.067000000
H     1.674000000    -5.901000000    -1.521000000
C     2.579000000    -4.055000000    -1.316000000
C     2.503000000    -3.901000000     0.048000000
C     3.396000000    -3.069000000     0.699000000
H     3.270000000    -2.923000000     1.768000000
C     4.246000000    -2.220000000    -0.048000000
O     4.870000000    -1.244000000     0.669000000
C     4.279000000     0.074000000     0.701000000
H     3.235000000    -0.118000000     0.412000000
C     4.350000000     0.774000000     2.094000000
C     4.628000000     2.125000000     2.152000000
H     4.956000000     2.658000000     1.263000000
C     4.074000000     0.041000000     3.318000000
H     3.996000000    -1.043000000     3.330000000
C     3.948000000     0.805000000     4.554000000
O     3.486000000     0.180000000     5.700000000
C     4.032000000     2.231000000     4.542000000
H     3.852000000     2.718000000     5.497000000
C     4.444000000     2.862000000     3.330000000
O     4.669000000     4.218000000     3.338000000
C     4.210000000     5.154000000     2.464000000
C     2.807000000     5.294000000     2.297000000
H     2.074000000     4.608000000     2.713000000
C     5.081000000     6.073000000     1.853000000
H     6.146000000     5.957000000     2.042000000
C     4.531000000     7.224000000     1.252000000
H     5.155000000     8.032000000     0.880000000
C     3.164000000     7.356000000     1.106000000
H     2.731000000     8.263000000     0.693000000
C     2.280000000     6.385000000     1.562000000
O     0.971000000     6.472000000     1.427000000
C     0.195000000     5.780000000     0.466000000
C    -1.095000000     6.173000000     0.185000000
H    -1.501000000     6.985000000     0.781000000
C    -1.848000000     5.594000000    -0.841000000
O    -3.124000000     6.115000000    -1.101000000
C    -4.145000000     5.373000000    -1.656000000
C    -4.640000000     4.229000000    -0.955000000
H    -4.185000000     3.726000000    -0.106000000
C    -4.722000000     5.898000000    -2.799000000
H    -4.342000000     6.719000000    -3.401000000
C    -5.905000000     5.267000000    -3.249000000
H    -6.447000000     5.657000000    -4.107000000
C    -6.416000000     4.116000000    -2.613000000
H    -7.114000000     3.394000000    -3.028000000
C    -5.791000000     3.621000000    -1.446000000
O    -6.247000000     2.520000000    -0.758000000
C    -5.687000000     1.275000000    -0.600000000
C    -6.191000000     0.478000000     0.421000000
H    -6.748000000     0.781000000     1.305000000
C    -5.791000000    -0.842000000     0.401000000
O    -6.353000000    -1.690000000     1.288000000
C    -5.979000000    -2.990000000     1.549000000
C    -4.957000000    -3.236000000     2.483000000
H    -4.528000000    -2.369000000     2.979000000
C    -6.760000000    -4.012000000     1.023000000
H    -7.374000000    -3.723000000     0.173000000
C    -6.430000000    -5.397000000     1.280000000
H    -6.981000000    -6.225000000     0.840000000
C    -5.398000000    -5.588000000     2.235000000
H    -5.150000000    -6.599000000     2.549000000
C    -4.667000000    -4.536000000     2.824000000
O    -3.679000000    -4.867000000     3.791000000
C    -2.339000000    -4.529000000     3.671000000
C    -1.564000000    -4.239000000     4.805000000
H    -2.097000000    -4.288000000     5.751000000
C    -0.242000000    -3.985000000     4.628000000
O     0.572000000    -3.620000000     5.769000000
C     1.863000000    -3.137000000     5.855000000
C     3.017000000    -3.947000000     6.032000000
H     2.900000000    -5.024000000     5.947000000
C     4.301000000    -3.415000000     6.070000000
H     5.104000000    -4.148000000     6.062000000
C     4.486000000    -2.023000000     5.964000000
H     5.444000000    -1.553000000     5.754000000
C     3.310000000    -1.198000000     5.829000000
C     2.091000000    -1.725000000     5.805000000
H     1.241000000    -1.053000000     5.724000000
C    -0.502000000    -0.550000000     2.198000000
H    -0.106000000    -1.116000000     3.037000000
C     0.276000000    -0.537000000     1.044000000
H     1.269000000    -0.968000000     0.944000000
C    -0.285000000    -0.003000000    -0.111000000
H     0.288000000     0.080000000    -1.058000000
C    -1.540000000     0.597000000    -0.101000000
H    -1.777000000     1.133000000    -1.016000000
C    -2.353000000     0.525000000     1.051000000
H    -3.381000000     0.877000000     1.077000000
C    -1.812000000     0.023000000     2.248000000
C    -2.621000000    -0.097000000     3.536000000
O    -3.835000000     0.049000000     3.505000000
O    -1.988000000    -0.243000000     4.579000000
O    -0.070000000     1.320000000     5.027000000
H    -0.561000000     0.525000000     5.238000000
H    -0.737000000     2.003000000     4.961000000
O    -1.337000000    -2.875000000     8.143000000
H    -1.789000000    -2.163000000     7.692000000
H    -0.499000000    -2.954000000     7.686000000
O    -0.394000000     4.750000000     3.905000000
H    -0.053000000     4.211000000     3.191000000
H    -1.285000000     4.429000000     4.043000000
O     0.277000000     2.492000000     2.393000000
H    -0.083000000     1.883000000     1.748000000
H     0.438000000     1.954000000     3.168000000
O    -2.064000000     6.272000000     6.023000000
H    -2.799000000     6.709000000     5.593000000
H    -1.673000000     5.730000000     5.337000000
O    -8.716000000    -1.542000000     6.489000000
H    -8.370000000    -1.253000000     5.645000000
H    -8.898000000    -0.731000000     6.964000000
O    -5.801000000     1.363000000     6.897000000
H    -6.118000000     1.419000000     7.799000000
H    -4.955000000     1.810000000     6.913000000
O    -7.693000000    -0.429000000     3.927000000
H    -7.795000000     0.467000000     3.607000000
H    -6.809000000    -0.679000000     3.661000000
O    -5.292000000     2.144000000     4.280000000
H    -5.842000000     1.861000000     5.011000000
H    -4.702000000     1.406000000     4.125000000
O     1.419000000     2.313000000     6.977000000
H     1.874000000     1.542000000     7.315000000
H     0.975000000     2.002000000     6.188000000
O    -0.695000000     2.396000000     8.709000000
H    -0.028000000     2.332000000     8.025000000
H    -0.507000000     1.662000000     9.295000000
O    -5.135000000    -1.014000000     5.479000000
H    -4.493000000    -0.675000000     4.855000000
H    -5.266000000    -0.298000000     6.100000000
O    -7.596000000     2.779000000     3.136000000
H    -8.002000000     3.122000000     3.932000000
H    -6.683000000     2.626000000     3.381000000
O    -6.068000000    -4.104000000     5.919000000
H    -6.605000000    -3.420000000     6.318000000
H    -5.400000000    -3.627000000     5.427000000
O    -2.940000000    -0.665000000     6.972000000
H    -2.472000000    -0.286000000     6.228000000
H    -3.592000000    -1.244000000     6.576000000
O    -5.677000000     6.036000000     3.166000000
H    -5.928000000     5.819000000     2.269000000
H    -5.440000000     5.196000000     3.559000000
O    -2.668000000     3.348000000     4.618000000
H    -2.943000000     3.082000000     5.495000000
H    -3.328000000     2.971000000     4.036000000
O    -3.321000000     2.646000000     7.144000000
H    -2.589000000     2.790000000     7.744000000
H    -4.091000000     2.940000000     7.630000000
O    -1.685000000    -0.344000000     9.447000000
H    -1.627000000    -1.299000000     9.446000000
H    -2.014000000    -0.123000000     8.575000000
