215
-1466.63130
C    -1.837000000     4.605000000    -2.495000000
H    -2.613000000     3.895000000    -2.769000000
C    -0.541000000     4.321000000    -2.731000000
C     0.493000000     5.134000000    -2.231000000
H     1.516000000     4.770000000    -2.176000000
C    -0.245000000     2.963000000    -3.248000000
O    -1.282000000     2.354000000    -4.054000000
H    -0.092000000     2.270000000    -2.408000000
O     1.035000000     2.994000000    -3.940000000
C     1.877000000     1.900000000    -3.875000000
C     2.893000000     2.038000000    -2.920000000
H     2.910000000     2.953000000    -2.333000000
C     3.584000000     0.887000000    -2.476000000
O     4.348000000     1.015000000    -1.381000000
C     3.503000000    -0.239000000    -3.258000000
C     4.402000000    -1.442000000    -2.963000000
H     4.565000000    -2.077000000    -3.837000000
C     3.792000000    -2.336000000    -1.848000000
C     3.011000000    -3.423000000    -2.183000000
H     2.838000000    -3.605000000    -3.241000000
H     5.359000000    -1.029000000    -2.638000000
C     2.572000000    -0.276000000    -4.315000000
H     2.516000000    -1.200000000    -4.886000000
C     1.622000000     0.736000000    -4.487000000
C     0.507000000     0.643000000    -5.466000000
H     0.708000000    -0.044000000    -6.291000000
H     0.228000000     1.545000000    -6.014000000
C    -0.717000000     0.158000000    -4.682000000
C    -1.016000000    -1.202000000    -4.653000000
H    -0.393000000    -1.929000000    -5.168000000
C    -1.578000000     1.025000000    -4.026000000
C    -2.636000000     0.614000000    -3.320000000
H    -3.220000000     1.408000000    -2.861000000
C    -2.954000000    -0.733000000    -3.268000000
O    -3.932000000    -1.158000000    -2.397000000
C    -3.537000000    -1.689000000    -1.074000000
C    -4.416000000    -0.979000000    -0.030000000
C    -4.835000000    -1.642000000     1.140000000
H    -4.846000000    -2.728000000     1.177000000
C    -4.537000000     0.387000000    -0.178000000
H    -4.164000000     0.983000000    -1.006000000
O    -3.688000000    -3.110000000    -1.125000000
H    -2.475000000    -1.449000000    -0.920000000
C    -2.093000000    -1.690000000    -3.891000000
C    -2.344000000    -3.154000000    -3.809000000
H    -1.811000000    -3.585000000    -4.660000000
H    -3.411000000    -3.371000000    -3.904000000
C    -1.858000000    -3.741000000    -2.540000000
C    -0.541000000    -4.231000000    -2.525000000
H     0.089000000    -4.097000000    -3.400000000
C    -2.560000000    -3.897000000    -1.328000000
C    -2.060000000    -4.553000000    -0.224000000
H    -2.616000000    -4.544000000     0.710000000
C    -0.758000000    -5.069000000    -0.300000000
O    -0.152000000    -5.402000000     0.900000000
C     0.607000000    -4.297000000     1.461000000
C     0.264000000    -4.033000000     2.945000000
C    -0.987000000    -4.471000000     3.460000000
H    -1.678000000    -5.012000000     2.819000000
C     1.091000000    -3.278000000     3.750000000
H     2.093000000    -3.048000000     3.396000000
O     2.009000000    -4.587000000     1.244000000
H     0.242000000    -3.356000000     1.022000000
C     0.001000000    -4.861000000    -1.440000000
C     1.469000000    -5.355000000    -1.518000000
H     1.695000000    -5.726000000    -2.520000000
H     1.636000000    -6.124000000    -0.762000000
C     2.350000000    -4.173000000    -1.146000000
C     2.659000000    -3.886000000     0.200000000
C     3.548000000    -2.867000000     0.511000000
H     3.671000000    -2.692000000     1.576000000
C     4.035000000    -2.061000000    -0.508000000
O     4.635000000    -0.910000000    -0.095000000
C     3.967000000     0.353000000    -0.196000000
H     2.900000000     0.086000000    -0.193000000
C     4.226000000     1.306000000     1.073000000
C     4.279000000     2.689000000     0.836000000
H     4.130000000     3.055000000    -0.177000000
C     4.276000000     0.880000000     2.355000000
H     4.126000000    -0.175000000     2.570000000
C     4.439000000     1.770000000     3.424000000
O     4.549000000     1.311000000     4.708000000
C     4.715000000     3.091000000     3.149000000
H     4.955000000     3.656000000     4.045000000
C     4.503000000     3.576000000     1.886000000
O     4.443000000     4.909000000     1.772000000
C     4.129000000     5.599000000     0.592000000
C     2.808000000     5.803000000     0.195000000
H     2.033000000     5.179000000     0.633000000
C     5.168000000     6.321000000     0.014000000
H     6.188000000     6.045000000     0.270000000
C     4.944000000     7.326000000    -0.955000000
H     5.733000000     7.999000000    -1.279000000
C     3.589000000     7.462000000    -1.372000000
H     3.276000000     8.302000000    -1.987000000
C     2.551000000     6.725000000    -0.805000000
O     1.251000000     7.133000000    -1.004000000
C     0.203000000     6.348000000    -1.535000000
C    -1.162000000     6.752000000    -1.397000000
H    -1.486000000     7.603000000    -0.804000000
C    -2.122000000     5.837000000    -1.876000000
O    -3.438000000     6.190000000    -1.719000000
C    -4.315000000     5.194000000    -1.538000000
C    -4.212000000     4.412000000    -0.359000000
H    -3.348000000     4.696000000     0.237000000
C    -5.322000000     4.951000000    -2.434000000
H    -5.473000000     5.492000000    -3.365000000
C    -6.149000000     3.947000000    -2.237000000
H    -6.958000000     3.745000000    -2.934000000
C    -6.062000000     3.085000000    -1.162000000
H    -6.866000000     2.400000000    -0.906000000
C    -5.072000000     3.349000000    -0.215000000
O    -5.012000000     2.543000000     0.933000000
C    -4.866000000     1.179000000     0.949000000
C    -5.468000000     0.507000000     1.994000000
H    -5.893000000     1.159000000     2.752000000
C    -5.393000000    -0.881000000     2.092000000
O    -5.882000000    -1.454000000     3.236000000
C    -5.433000000    -2.659000000     3.651000000
C    -4.144000000    -2.884000000     4.094000000
H    -3.452000000    -2.047000000     4.149000000
C    -6.288000000    -3.710000000     3.315000000
H    -7.180000000    -3.527000000     2.722000000
C    -5.880000000    -5.028000000     3.591000000
H    -6.544000000    -5.859000000     3.367000000
C    -4.620000000    -5.235000000     4.141000000
H    -4.236000000    -6.232000000     4.340000000
C    -3.784000000    -4.117000000     4.476000000
O    -2.610000000    -4.315000000     5.134000000
C    -1.335000000    -3.985000000     4.693000000
C    -0.439000000    -3.305000000     5.518000000
H    -0.614000000    -3.189000000     6.584000000
C     0.811000000    -2.997000000     5.025000000
O     1.545000000    -2.174000000     5.799000000
C     2.893000000    -1.861000000     5.651000000
C     3.951000000    -2.728000000     5.702000000
H     3.872000000    -3.780000000     5.962000000
C     5.213000000    -2.224000000     5.348000000
H     6.069000000    -2.885000000     5.454000000
C     5.448000000    -0.926000000     5.075000000
H     6.450000000    -0.591000000     4.819000000
C     4.345000000    -0.019000000     5.056000000
C     3.064000000    -0.497000000     5.275000000
H     2.124000000     0.048000000     5.286000000
C    -2.020000000     1.602000000     2.182000000
H    -2.786000000     1.017000000     2.684000000
C    -1.116000000     0.887000000     1.427000000
H    -1.095000000    -0.185000000     1.249000000
C    -0.223000000     1.629000000     0.733000000
H     0.525000000     1.161000000     0.173000000
C    -0.159000000     3.000000000     0.739000000
H     0.594000000     3.489000000     0.127000000
C    -0.959000000     3.717000000     1.616000000
H    -0.862000000     4.791000000     1.756000000
C    -1.972000000     3.020000000     2.309000000
C    -2.965000000     3.631000000     3.276000000
O    -3.024000000     4.872000000     3.267000000
O    -3.776000000     3.073000000     3.995000000
O    -4.482000000     8.652000000     0.795000000
H    -3.773000000     8.119000000     1.155000000
H    -5.252000000     8.085000000     0.835000000
O    -0.759000000     5.486000000     4.882000000
H    -1.203000000     5.518000000     5.729000000
H    -1.470000000     5.469000000     4.240000000
O     0.570000000     1.618000000     3.815000000
H     0.940000000     2.500000000     3.848000000
H     0.002000000     1.626000000     3.044000000
O    -7.574000000     6.133000000     2.770000000
H    -7.342000000     5.268000000     3.109000000
H    -8.126000000     5.952000000     2.010000000
O    -2.436000000     7.155000000     1.883000000
H    -2.579000000     6.308000000     2.304000000
H    -1.810000000     7.602000000     2.453000000
O    -2.542000000     2.288000000     7.789000000
H    -1.860000000     1.662000000     8.032000000
H    -3.272000000     1.744000000     7.494000000
O    -0.790000000     8.172000000     3.767000000
H    -0.142000000     8.693000000     4.243000000
H    -1.620000000     8.623000000     3.922000000
O     1.408000000     4.087000000     3.792000000
H     0.754000000     4.581000000     4.286000000
H     2.209000000     4.606000000     3.867000000
O    -4.762000000     6.724000000     4.031000000
H    -4.143000000     6.066000000     3.714000000
H    -5.623000000     6.365000000     3.818000000
O    -4.311000000     1.080000000     5.814000000
H    -3.700000000     0.373000000     5.605000000
H    -4.119000000     1.761000000     5.169000000
O    -5.313000000     8.204000000     6.155000000
H    -4.598000000     8.805000000     5.946000000
H    -5.154000000     7.441000000     5.599000000
O     0.340000000     1.789000000     6.635000000
H     0.612000000     2.686000000     6.830000000
H     0.498000000     1.690000000     5.696000000
O    -6.394000000     3.443000000     3.907000000
H    -6.726000000     2.558000000     4.057000000
H    -5.485000000     3.315000000     3.635000000
O    -4.558000000     6.197000000     8.122000000
H    -4.210000000     5.696000000     7.385000000
H    -4.752000000     7.060000000     7.756000000
O    -3.347000000     4.459000000     6.341000000
H    -3.556000000     4.198000000     5.444000000
H    -2.986000000     3.668000000     6.742000000
O    -7.086000000     5.140000000     6.164000000
H    -6.606000000     4.755000000     6.898000000
H    -6.805000000     4.633000000     5.402000000
O    -3.576000000     9.162000000     3.873000000
H    -4.096000000     8.386000000     3.663000000
H    -3.995000000     9.870000000     3.384000000
O     1.424000000     7.105000000     5.954000000
H     1.084000000     7.752000000     6.572000000
H     0.743000000     7.030000000     5.286000000
O    -1.678000000    -0.109000000     5.199000000
H    -0.861000000    -0.226000000     4.714000000
H    -1.431000000     0.414000000     5.961000000
