215
-1470.56612
C    -1.318000000     4.843000000    -3.251000000
H    -2.091000000     4.312000000    -3.801000000
C    -0.047000000     4.361000000    -3.023000000
C     0.845000000     5.082000000    -2.211000000
H     1.884000000     4.781000000    -2.100000000
C     0.357000000     2.972000000    -3.479000000
O    -0.610000000     2.550000000    -4.445000000
H     0.205000000     2.307000000    -2.616000000
O     1.685000000     2.811000000    -4.033000000
C     2.322000000     1.587000000    -3.914000000
C     3.150000000     1.537000000    -2.826000000
H     3.355000000     2.491000000    -2.348000000
C     3.875000000     0.432000000    -2.498000000
O     4.646000000     0.492000000    -1.393000000
C     3.607000000    -0.807000000    -3.199000000
C     4.358000000    -2.087000000    -2.899000000
H     4.450000000    -2.728000000    -3.778000000
C     3.748000000    -2.861000000    -1.754000000
C     2.784000000    -3.861000000    -2.004000000
H     2.429000000    -4.043000000    -3.015000000
H     5.379000000    -1.782000000    -2.661000000
C     2.711000000    -0.709000000    -4.301000000
H     2.441000000    -1.573000000    -4.903000000
C     2.007000000     0.424000000    -4.633000000
C     0.891000000     0.385000000    -5.716000000
H     1.013000000    -0.441000000    -6.419000000
H     1.072000000     1.278000000    -6.317000000
C    -0.422000000     0.224000000    -4.978000000
C    -0.846000000    -1.067000000    -4.801000000
H    -0.204000000    -1.851000000    -5.195000000
C    -1.144000000     1.264000000    -4.432000000
C    -2.280000000     1.025000000    -3.723000000
H    -2.921000000     1.755000000    -3.235000000
C    -2.676000000    -0.307000000    -3.504000000
O    -3.818000000    -0.509000000    -2.759000000
C    -3.548000000    -1.011000000    -1.390000000
C    -4.299000000    -0.178000000    -0.369000000
C    -4.567000000    -0.721000000     0.882000000
H    -4.272000000    -1.742000000     1.111000000
C    -4.637000000     1.177000000    -0.526000000
H    -4.364000000     1.725000000    -1.424000000
O    -3.893000000    -2.461000000    -1.335000000
H    -2.463000000    -0.951000000    -1.219000000
C    -1.936000000    -1.406000000    -4.017000000
C    -2.394000000    -2.829000000    -3.864000000
H    -2.000000000    -3.428000000    -4.687000000
H    -3.484000000    -2.893000000    -3.906000000
C    -1.972000000    -3.487000000    -2.581000000
C    -0.839000000    -4.318000000    -2.586000000
H    -0.136000000    -4.493000000    -3.396000000
C    -2.836000000    -3.388000000    -1.445000000
C    -2.361000000    -3.877000000    -0.242000000
H    -2.822000000    -3.766000000     0.736000000
C    -1.140000000    -4.516000000    -0.164000000
O    -0.604000000    -4.794000000     1.037000000
C     0.365000000    -3.908000000     1.631000000
C     0.029000000    -3.624000000     3.058000000
C    -1.272000000    -3.724000000     3.550000000
H    -2.167000000    -3.856000000     2.948000000
C     1.082000000    -3.144000000     3.905000000
H     2.094000000    -2.898000000     3.596000000
O     1.686000000    -4.347000000     1.425000000
H     0.242000000    -2.912000000     1.181000000
C    -0.395000000    -4.819000000    -1.348000000
C     0.979000000    -5.448000000    -1.213000000
H     1.186000000    -5.932000000    -2.169000000
H     0.981000000    -6.252000000    -0.475000000
C     2.014000000    -4.386000000    -0.944000000
C     2.336000000    -3.899000000     0.345000000
C     3.360000000    -3.069000000     0.607000000
H     3.498000000    -2.644000000     1.598000000
C     4.010000000    -2.428000000    -0.440000000
O     4.767000000    -1.353000000    -0.192000000
C     4.068000000    -0.125000000    -0.250000000
H     3.005000000    -0.267000000    -0.493000000
C     4.232000000     0.667000000     1.110000000
C     3.752000000     1.960000000     1.180000000
H     3.344000000     2.388000000     0.267000000
C     4.699000000     0.080000000     2.289000000
H     5.187000000    -0.890000000     2.239000000
C     4.601000000     0.823000000     3.499000000
O     5.143000000     0.353000000     4.729000000
C     4.057000000     2.091000000     3.538000000
H     4.030000000     2.660000000     4.464000000
C     3.637000000     2.705000000     2.347000000
O     3.084000000     3.959000000     2.435000000
C     3.224000000     4.897000000     1.485000000
C     2.066000000     5.571000000     0.908000000
H     1.064000000     5.341000000     1.263000000
C     4.523000000     5.230000000     1.029000000
H     5.359000000     4.847000000     1.610000000
C     4.721000000     6.243000000     0.097000000
H     5.741000000     6.567000000    -0.093000000
C     3.588000000     6.772000000    -0.516000000
H     3.669000000     7.451000000    -1.362000000
C     2.280000000     6.415000000    -0.174000000
O     1.233000000     7.029000000    -0.884000000
C     0.368000000     6.242000000    -1.565000000
C    -0.937000000     6.690000000    -1.782000000
H    -1.293000000     7.434000000    -1.074000000
C    -1.798000000     5.960000000    -2.584000000
O    -3.106000000     6.278000000    -2.564000000
C    -4.229000000     5.483000000    -2.313000000
C    -4.243000000     4.732000000    -1.134000000
H    -3.352000000     4.845000000    -0.521000000
C    -5.278000000     5.430000000    -3.194000000
H    -5.412000000     5.987000000    -4.118000000
C    -6.306000000     4.523000000    -2.959000000
H    -7.105000000     4.445000000    -3.691000000
C    -6.317000000     3.838000000    -1.732000000
H    -7.216000000     3.243000000    -1.592000000
C    -5.314000000     3.959000000    -0.812000000
O    -5.361000000     3.239000000     0.335000000
C    -5.236000000     1.882000000     0.470000000
C    -5.544000000     1.285000000     1.684000000
H    -6.115000000     1.875000000     2.396000000
C    -5.216000000    -0.017000000     1.885000000
O    -5.523000000    -0.560000000     3.160000000
C    -5.203000000    -1.860000000     3.474000000
C    -4.185000000    -2.125000000     4.359000000
H    -3.455000000    -1.352000000     4.586000000
C    -5.906000000    -2.942000000     2.948000000
H    -6.663000000    -2.743000000     2.194000000
C    -5.748000000    -4.234000000     3.436000000
H    -6.333000000    -5.072000000     3.067000000
C    -4.715000000    -4.439000000     4.361000000
H    -4.539000000    -5.433000000     4.764000000
C    -3.853000000    -3.406000000     4.742000000
O    -2.756000000    -3.613000000     5.524000000
C    -1.498000000    -3.473000000     4.933000000
C    -0.470000000    -3.102000000     5.737000000
H    -0.712000000    -3.053000000     6.796000000
C     0.778000000    -2.846000000     5.245000000
O     1.815000000    -2.790000000     6.216000000
C     3.119000000    -2.446000000     5.970000000
C     4.159000000    -3.339000000     6.294000000
H     3.877000000    -4.270000000     6.779000000
C     5.470000000    -3.099000000     5.895000000
H     6.193000000    -3.901000000     6.019000000
C     5.841000000    -1.902000000     5.279000000
H     6.850000000    -1.727000000     4.915000000
C     4.842000000    -0.908000000     5.147000000
C     3.547000000    -1.246000000     5.483000000
H     2.777000000    -0.499000000     5.307000000
C    -2.084000000     1.045000000     3.366000000
H    -2.403000000     0.897000000     4.395000000
C    -1.285000000     0.078000000     2.745000000
H    -1.030000000    -0.812000000     3.313000000
C    -0.695000000     0.305000000     1.471000000
H     0.033000000    -0.419000000     1.142000000
C    -1.076000000     1.450000000     0.835000000
H    -0.562000000     1.699000000    -0.090000000
C    -1.886000000     2.410000000     1.378000000
H    -2.183000000     3.331000000     0.882000000
C    -2.452000000     2.182000000     2.674000000
C    -3.317000000     3.149000000     3.388000000
O    -3.444000000     4.266000000     2.840000000
O    -3.806000000     2.898000000     4.482000000
O    -3.082000000     8.530000000     0.298000000
H    -2.653000000     7.885000000     0.860000000
H    -3.534000000     8.008000000    -0.365000000
O    -0.456000000     4.958000000     5.335000000
H    -0.223000000     4.272000000     4.709000000
H    -0.808000000     4.485000000     6.088000000
O    -6.805000000     7.694000000     0.063000000
H    -7.560000000     7.138000000    -0.128000000
H    -6.293000000     7.193000000     0.699000000
O     0.546000000     2.623000000     3.675000000
H     1.191000000     3.124000000     3.177000000
H     0.244000000     1.948000000     3.067000000
O    -5.271000000     5.924000000     1.644000000
H    -4.479000000     6.325000000     1.285000000
H    -5.061000000     4.993000000     1.707000000
O    -2.203000000     6.128000000     1.369000000
H    -2.561000000     5.505000000     2.002000000
H    -1.308000000     6.285000000     1.669000000
O    -4.625000000     2.252000000     8.707000000
H    -4.632000000     1.451000000     8.183000000
H    -5.539000000     2.380000000     8.962000000
O    -8.813000000     2.313000000     4.167000000
H    -8.861000000     1.593000000     4.796000000
H    -8.190000000     2.928000000     4.554000000
O    -0.227000000     8.128000000     2.826000000
H     0.335000000     8.726000000     3.319000000
H    -1.022000000     8.056000000     3.354000000
O    -4.336000000     5.984000000     4.764000000
H    -4.068000000     5.356000000     4.093000000
H    -4.940000000     6.574000000     4.313000000
O    -4.851000000     0.609000000     5.688000000
H    -4.719000000     1.460000000     5.270000000
H    -5.331000000     0.095000000     5.039000000
O     0.892000000     1.598000000     6.419000000
H     1.439000000     2.340000000     6.676000000
H     0.471000000     1.881000000     5.607000000
O    -6.405000000     3.385000000     5.332000000
H    -5.761000000     3.244000000     6.026000000
H    -5.883000000     3.618000000     4.564000000
O    -4.078000000     4.972000000     7.436000000
H    -3.682000000     4.100000000     7.409000000
H    -4.020000000     5.288000000     6.535000000
O    -2.153000000     3.048000000     6.473000000
H    -2.738000000     3.019000000     5.716000000
H    -2.055000000     2.133000000     6.735000000
O    -6.699000000     5.189000000     7.385000000
H    -5.761000000     5.147000000     7.573000000
H    -6.799000000     4.719000000     6.557000000
O    -2.429000000     8.213000000     4.429000000
H    -3.254000000     8.673000000     4.276000000
H    -2.690000000     7.314000000     4.630000000
O     1.140000000     7.324000000     5.930000000
H     0.771000000     8.202000000     5.829000000
H     0.414000000     6.734000000     5.727000000
O    -1.726000000     0.224000000     7.285000000
H    -1.765000000    -0.260000000     6.460000000
H    -1.054000000    -0.228000000     7.795000000
