215
-1439.62043
C    -1.627000000     3.941000000    -2.641000000
H    -2.325000000     3.194000000    -3.009000000
C    -0.264000000     3.702000000    -2.930000000
C     0.709000000     4.698000000    -2.662000000
H     1.784000000     4.547000000    -2.702000000
C     0.201000000     2.351000000    -3.427000000
O    -0.667000000     1.830000000    -4.465000000
H     0.108000000     1.740000000    -2.517000000
O     1.625000000     2.412000000    -3.880000000
C     2.382000000     1.388000000    -3.538000000
C     3.248000000     1.584000000    -2.457000000
H     3.220000000     2.475000000    -1.835000000
C     4.009000000     0.546000000    -1.888000000
O     4.582000000     0.768000000    -0.666000000
C     3.948000000    -0.723000000    -2.507000000
C     4.781000000    -1.880000000    -2.001000000
H     5.027000000    -2.600000000    -2.784000000
C     4.047000000    -2.609000000    -0.857000000
C     3.262000000    -3.704000000    -1.208000000
H     3.027000000    -3.929000000    -2.245000000
H     5.746000000    -1.416000000    -1.785000000
C     3.183000000    -0.877000000    -3.695000000
H     3.010000000    -1.912000000    -3.982000000
C     2.361000000     0.185000000    -4.179000000
C     1.410000000    -0.035000000    -5.338000000
H     1.867000000    -0.820000000    -5.944000000
H     1.391000000     0.885000000    -5.924000000
C     0.005000000    -0.465000000    -4.900000000
C    -0.301000000    -1.827000000    -4.605000000
H     0.489000000    -2.559000000    -4.753000000
C    -0.943000000     0.519000000    -4.543000000
C    -2.179000000     0.078000000    -4.042000000
H    -2.947000000     0.728000000    -3.633000000
C    -2.523000000    -1.225000000    -3.921000000
O    -3.639000000    -1.397000000    -3.180000000
C    -3.519000000    -1.653000000    -1.762000000
C    -4.638000000    -0.981000000    -1.008000000
C    -5.112000000    -1.539000000     0.220000000
H    -4.666000000    -2.470000000     0.561000000
C    -5.083000000     0.277000000    -1.321000000
H    -4.672000000     0.945000000    -2.074000000
O    -3.483000000    -3.066000000    -1.514000000
H    -2.621000000    -1.222000000    -1.296000000
C    -1.547000000    -2.231000000    -4.184000000
C    -1.827000000    -3.641000000    -3.832000000
H    -1.230000000    -4.274000000    -4.493000000
H    -2.846000000    -3.923000000    -4.108000000
C    -1.423000000    -3.987000000    -2.385000000
C    -0.200000000    -4.600000000    -2.107000000
H     0.483000000    -4.812000000    -2.925000000
C    -2.288000000    -3.680000000    -1.319000000
C    -1.930000000    -4.006000000    -0.007000000
H    -2.547000000    -3.758000000     0.853000000
C    -0.756000000    -4.640000000     0.210000000
O    -0.485000000    -4.864000000     1.605000000
C     0.458000000    -3.886000000     2.144000000
C     0.101000000    -3.224000000     3.511000000
C    -1.126000000    -2.638000000     3.552000000
H    -1.801000000    -2.786000000     2.713000000
C     1.022000000    -3.189000000     4.556000000
H     2.014000000    -3.632000000     4.508000000
O     1.765000000    -4.535000000     2.129000000
H     0.415000000    -3.005000000     1.487000000
C     0.114000000    -4.943000000    -0.839000000
C     1.520000000    -5.521000000    -0.628000000
H     1.780000000    -6.026000000    -1.560000000
H     1.440000000    -6.174000000     0.243000000
C     2.502000000    -4.392000000    -0.270000000
C     2.576000000    -4.038000000     1.069000000
C     3.429000000    -3.009000000     1.368000000
H     3.464000000    -2.713000000     2.413000000
C     4.081000000    -2.242000000     0.443000000
O     4.574000000    -1.024000000     0.892000000
C     3.978000000     0.227000000     0.482000000
H     2.926000000     0.005000000     0.251000000
C     4.005000000     1.293000000     1.577000000
C     3.989000000     2.616000000     1.231000000
H     3.819000000     2.913000000     0.200000000
C     3.907000000     0.948000000     2.915000000
H     3.920000000    -0.100000000     3.203000000
C     3.970000000     1.972000000     3.889000000
O     3.868000000     1.748000000     5.218000000
C     4.004000000     3.326000000     3.499000000
H     4.086000000     4.160000000     4.191000000
C     3.953000000     3.624000000     2.142000000
O     3.884000000     4.979000000     1.820000000
C     3.786000000     5.469000000     0.522000000
C     2.537000000     5.951000000     0.059000000
H     1.706000000     5.921000000     0.760000000
C     4.955000000     5.710000000    -0.229000000
H     5.922000000     5.544000000     0.239000000
C     4.773000000     6.360000000    -1.473000000
H     5.675000000     6.498000000    -2.063000000
C     3.530000000     6.650000000    -2.017000000
H     3.359000000     7.041000000    -3.016000000
C     2.413000000     6.523000000    -1.194000000
O     1.215000000     6.894000000    -1.743000000
C     0.280000000     5.954000000    -2.176000000
C    -1.077000000     6.147000000    -1.928000000
H    -1.421000000     7.123000000    -1.595000000
C    -2.020000000     5.215000000    -2.180000000
O    -3.401000000     5.550000000    -2.047000000
C    -4.476000000     4.728000000    -2.392000000
C    -5.049000000     3.872000000    -1.479000000
H    -4.670000000     3.812000000    -0.462000000
C    -4.936000000     4.743000000    -3.646000000
H    -4.513000000     5.347000000    -4.445000000
C    -5.950000000     3.882000000    -4.114000000
H    -6.147000000     3.760000000    -5.176000000
C    -6.543000000     2.944000000    -3.160000000
H    -7.311000000     2.265000000    -3.520000000
C    -6.111000000     3.033000000    -1.811000000
O    -6.617000000     2.097000000    -0.959000000
C    -6.113000000     0.880000000    -0.575000000
C    -6.690000000     0.170000000     0.440000000
H    -7.467000000     0.675000000     1.008000000
C    -6.222000000    -1.019000000     0.869000000
O    -6.680000000    -1.564000000     2.017000000
C    -5.792000000    -2.065000000     2.929000000
C    -4.694000000    -1.297000000     3.416000000
H    -4.519000000    -0.267000000     3.117000000
C    -6.082000000    -3.306000000     3.459000000
H    -6.974000000    -3.812000000     3.097000000
C    -5.222000000    -3.932000000     4.339000000
H    -5.427000000    -4.941000000     4.688000000
C    -4.047000000    -3.300000000     4.682000000
H    -3.365000000    -3.823000000     5.347000000
C    -3.787000000    -1.940000000     4.250000000
O    -2.710000000    -1.394000000     4.866000000
C    -1.504000000    -1.974000000     4.727000000
C    -0.550000000    -1.797000000     5.723000000
H    -0.807000000    -1.325000000     6.668000000
C     0.677000000    -2.467000000     5.714000000
O     1.462000000    -2.208000000     6.745000000
C     2.632000000    -1.565000000     6.486000000
C     3.845000000    -2.240000000     6.491000000
H     3.915000000    -3.256000000     6.872000000
C     5.023000000    -1.663000000     6.082000000
H     5.936000000    -2.248000000     6.152000000
C     4.994000000    -0.319000000     5.658000000
H     5.920000000     0.192000000     5.408000000
C     3.834000000     0.427000000     5.647000000
C     2.629000000    -0.144000000     6.068000000
H     1.659000000     0.335000000     5.965000000
C    -1.755000000     1.260000000     1.533000000
H    -2.600000000     0.974000000     2.154000000
C    -1.089000000     0.240000000     0.819000000
H    -1.425000000    -0.793000000     0.848000000
C     0.108000000     0.613000000     0.135000000
H     0.600000000    -0.175000000    -0.462000000
C     0.604000000     1.917000000     0.272000000
H     1.608000000     2.089000000    -0.107000000
C    -0.055000000     2.914000000     0.936000000
H     0.304000000     3.939000000     0.891000000
C    -1.318000000     2.594000000     1.583000000
C    -2.119000000     3.623000000     2.380000000
O    -1.730000000     4.786000000     2.429000000
O    -3.287000000     3.372000000     2.619000000
O     0.867000000     4.425000000     3.569000000
H     0.082000000     4.553000000     3.036000000
H     1.582000000     4.757000000     3.026000000
O     0.791000000     1.255000000     3.690000000
H     0.619000000     1.313000000     2.750000000
H     1.305000000     2.037000000     3.889000000
O    -5.684000000     1.945000000     4.371000000
H    -5.209000000     2.694000000     4.011000000
H    -5.172000000     1.683000000     5.137000000
O     0.017000000     7.713000000     4.734000000
H    -0.540000000     8.422000000     5.058000000
H    -0.579000000     6.971000000     4.626000000
O    -2.374000000     9.189000000     2.883000000
H    -3.101000000     8.938000000     3.453000000
H    -2.435000000     8.591000000     2.139000000
O    -6.357000000     5.983000000     4.944000000
H    -7.058000000     6.632000000     4.884000000
H    -6.795000000     5.183000000     5.235000000
O    -6.881000000     4.107000000     1.669000000
H    -7.334000000     3.345000000     2.029000000
H    -6.751000000     4.686000000     2.420000000
O    -2.054000000     6.960000000     1.138000000
H    -1.867000000     6.150000000     1.611000000
H    -2.989000000     6.911000000     0.939000000
O    -3.230000000     1.779000000     6.671000000
H    -3.475000000     2.701000000     6.746000000
H    -3.303000000     1.439000000     7.563000000
O    -2.447000000     6.444000000     4.533000000
H    -3.140000000     7.024000000     4.216000000
H    -2.408000000     5.741000000     3.883000000
O     0.375000000     8.778000000     0.859000000
H     0.964000000     8.360000000     1.487000000
H    -0.388000000     8.202000000     0.825000000
O    -4.113000000     4.187000000     5.148000000
H    -4.576000000     5.020000000     5.237000000
H    -3.852000000     4.155000000     4.227000000
O    -4.696000000     8.125000000     4.462000000
H    -4.936000000     7.253000000     4.777000000
H    -5.245000000     8.260000000     3.689000000
O    -4.573000000     5.485000000     1.704000000
H    -3.957000000     4.815000000     2.002000000
H    -5.385000000     5.006000000     1.537000000
O    -2.389000000     6.770000000     6.994000000
H    -2.306000000     7.721000000     6.916000000
H    -2.416000000     6.457000000     6.089000000
O    -5.447000000     8.154000000     1.000000000
H    -6.386000000     8.016000000     1.125000000
H    -5.074000000     7.272000000     0.995000000
O    -3.799000000     4.145000000     8.020000000
H    -3.343000000     4.664000000     7.358000000
H    -3.953000000     4.756000000     8.741000000
O     0.722000000     3.772000000     6.216000000
H     0.485000000     4.048000000     5.331000000
H     0.319000000     2.909000000     6.314000000
O    -0.724000000     1.276000000     5.905000000
H    -1.670000000     1.189000000     5.787000000
H    -0.360000000     1.120000000     5.033000000
