215
-1442.02268
C    -2.685000000    -1.415000000    -3.780000000
H    -1.876000000    -2.136000000    -3.696000000
C    -2.416000000    -0.093000000    -4.103000000
C    -3.472000000     0.814000000    -4.115000000
H    -3.383000000     1.884000000    -4.285000000
C    -0.952000000     0.383000000    -4.248000000
O    -0.093000000    -0.459000000    -5.120000000
H    -0.551000000     0.366000000    -3.224000000
O    -0.913000000     1.761000000    -4.682000000
C    -0.117000000     2.611000000    -3.916000000
C    -0.741000000     3.363000000    -2.900000000
H    -1.811000000     3.175000000    -2.890000000
C     0.021000000     3.989000000    -1.935000000
O    -0.598000000     4.648000000    -0.887000000
C     1.425000000     3.996000000    -2.054000000
C     2.276000000     4.866000000    -1.088000000
H     3.237000000     5.261000000    -1.424000000
C     2.437000000     4.089000000     0.202000000
C     3.604000000     3.324000000     0.306000000
H     4.205000000     3.215000000    -0.594000000
H     1.691000000     5.772000000    -0.912000000
C     2.048000000     3.290000000    -3.089000000
H     3.130000000     3.268000000    -3.198000000
C     1.251000000     2.481000000    -3.918000000
C     1.977000000     1.614000000    -4.970000000
H     2.977000000     2.021000000    -5.133000000
H     1.409000000     1.581000000    -5.902000000
C     2.183000000     0.239000000    -4.446000000
C     3.343000000    -0.036000000    -3.722000000
H     4.073000000     0.749000000    -3.547000000
C     1.198000000    -0.766000000    -4.659000000
C     1.343000000    -2.012000000    -3.965000000
H     0.599000000    -2.802000000    -4.025000000
C     2.469000000    -2.196000000    -3.212000000
O     2.442000000    -3.326000000    -2.454000000
C     2.272000000    -3.372000000    -1.004000000
C     1.408000000    -4.557000000    -0.529000000
C     1.332000000    -4.924000000     0.785000000
H     1.992000000    -4.432000000     1.494000000
C     0.626000000    -5.264000000    -1.456000000
H     0.584000000    -5.007000000    -2.511000000
O     3.586000000    -3.389000000    -0.421000000
H     1.756000000    -2.470000000    -0.645000000
C     3.442000000    -1.270000000    -3.091000000
C     4.717000000    -1.574000000    -2.288000000
H     5.602000000    -1.145000000    -2.762000000
H     4.901000000    -2.636000000    -2.466000000
C     4.560000000    -1.314000000    -0.817000000
C     5.032000000    -0.055000000    -0.393000000
H     5.277000000     0.675000000    -1.161000000
C     4.171000000    -2.282000000     0.024000000
C     4.089000000    -1.950000000     1.397000000
H     3.579000000    -2.634000000     2.070000000
C     4.370000000    -0.675000000     1.810000000
O     4.017000000    -0.398000000     3.092000000
C     2.799000000     0.387000000     3.174000000
C     1.875000000    -0.280000000     4.247000000
C     2.103000000    -1.608000000     4.621000000
H     2.962000000    -2.148000000     4.231000000
C     0.724000000     0.454000000     4.708000000
H     0.550000000     1.408000000     4.218000000
O     3.013000000     1.772000000     3.446000000
H     2.269000000     0.295000000     2.214000000
C     4.895000000     0.320000000     0.966000000
C     5.149000000     1.677000000     1.428000000
H     5.906000000     2.212000000     0.851000000
H     5.590000000     1.524000000     2.415000000
C     3.893000000     2.600000000     1.465000000
C     2.962000000     2.659000000     2.487000000
C     1.844000000     3.510000000     2.455000000
H     1.113000000     3.385000000     3.250000000
C     1.603000000     4.230000000     1.272000000
O     0.328000000     4.799000000     1.236000000
C    -0.706000000     4.096000000     0.447000000
H    -0.507000000     3.016000000     0.398000000
C    -2.059000000     4.355000000     1.091000000
C    -3.197000000     4.235000000     0.254000000
H    -2.981000000     4.276000000    -0.811000000
C    -2.238000000     4.497000000     2.514000000
H    -1.376000000     4.438000000     3.173000000
C    -3.556000000     4.376000000     3.001000000
O    -3.749000000     4.335000000     4.368000000
C    -4.665000000     4.209000000     2.127000000
H    -5.688000000     4.232000000     2.496000000
C    -4.495000000     4.195000000     0.744000000
O    -5.643000000     4.223000000    -0.058000000
C    -5.626000000     4.062000000    -1.463000000
C    -5.736000000     2.764000000    -1.999000000
H    -5.710000000     1.877000000    -1.372000000
C    -5.458000000     5.138000000    -2.272000000
H    -5.271000000     6.053000000    -1.717000000
C    -5.470000000     5.003000000    -3.653000000
H    -5.334000000     5.821000000    -4.356000000
C    -5.578000000     3.668000000    -4.230000000
H    -5.523000000     3.511000000    -5.305000000
C    -5.743000000     2.549000000    -3.411000000
O    -5.747000000     1.329000000    -3.997000000
C    -4.754000000     0.432000000    -3.830000000
C    -5.023000000    -0.887000000    -3.465000000
H    -6.024000000    -1.272000000    -3.286000000
C    -3.998000000    -1.831000000    -3.415000000
O    -4.315000000    -3.089000000    -3.038000000
C    -3.572000000    -4.182000000    -3.428000000
C    -2.930000000    -4.902000000    -2.457000000
H    -3.104000000    -4.680000000    -1.407000000
C    -3.326000000    -4.495000000    -4.792000000
H    -3.909000000    -3.997000000    -5.563000000
C    -2.361000000    -5.422000000    -5.210000000
H    -2.209000000    -5.550000000    -6.279000000
C    -1.581000000    -6.033000000    -4.196000000
H    -0.823000000    -6.792000000    -4.372000000
C    -1.890000000    -5.748000000    -2.859000000
O    -1.321000000    -6.614000000    -1.907000000
C    -0.388000000    -6.123000000    -1.010000000
C    -0.353000000    -6.590000000     0.336000000
H    -1.005000000    -7.422000000     0.590000000
C     0.586000000    -5.988000000     1.118000000
O     0.732000000    -6.440000000     2.405000000
C     1.517000000    -5.922000000     3.405000000
C     1.033000000    -4.923000000     4.187000000
H     0.022000000    -4.535000000     4.091000000
C     2.896000000    -6.357000000     3.502000000
H     3.276000000    -6.935000000     2.663000000
C     3.741000000    -5.751000000     4.373000000
H     4.802000000    -5.969000000     4.277000000
C     3.232000000    -4.781000000     5.258000000
H     3.889000000    -4.255000000     5.945000000
C     1.927000000    -4.380000000     5.144000000
O     1.465000000    -3.445000000     6.054000000
C     1.288000000    -2.120000000     5.634000000
C     0.162000000    -1.465000000     6.121000000
H    -0.649000000    -1.989000000     6.620000000
C    -0.151000000    -0.210000000     5.563000000
O    -1.366000000     0.364000000     6.029000000
C    -1.751000000     1.694000000     6.026000000
C    -1.230000000     2.509000000     7.072000000
H    -0.695000000     1.993000000     7.865000000
C    -1.577000000     3.892000000     7.168000000
H    -1.206000000     4.559000000     7.943000000
C    -2.412000000     4.420000000     6.218000000
H    -2.773000000     5.446000000     6.204000000
C    -2.854000000     3.609000000     5.175000000
C    -2.569000000     2.239000000     5.057000000
H    -2.958000000     1.661000000     4.223000000
C    -0.132000000    -1.103000000     1.435000000
H     0.389000000    -1.744000000     2.143000000
C     0.656000000    -0.541000000     0.444000000
H     1.743000000    -0.513000000     0.440000000
C     0.055000000     0.190000000    -0.599000000
H     0.679000000     0.714000000    -1.370000000
C    -1.242000000     0.476000000    -0.458000000
H    -1.718000000     1.037000000    -1.259000000
C    -2.060000000    -0.076000000     0.531000000
H    -3.085000000     0.266000000     0.652000000
C    -1.491000000    -0.843000000     1.528000000
C    -2.351000000    -1.395000000     2.618000000
O    -3.380000000    -0.853000000     2.960000000
O    -2.173000000    -2.514000000     3.060000000
O    -8.169000000     0.921000000     4.647000000
H    -7.405000000     1.133000000     5.184000000
H    -8.754000000     0.449000000     5.239000000
O    -2.151000000    -5.079000000     2.613000000
H    -2.218000000    -4.131000000     2.729000000
H    -1.632000000    -5.186000000     1.816000000
O    -5.579000000     0.326000000     2.444000000
H    -5.699000000    -0.119000000     1.605000000
H    -4.768000000    -0.040000000     2.796000000
O    -2.738000000    -5.562000000     6.520000000
H    -2.717000000    -4.695000000     6.116000000
H    -3.113000000    -6.131000000     5.847000000
O    -6.694000000    -2.419000000     4.826000000
H    -5.982000000    -3.032000000     4.642000000
H    -7.070000000    -2.224000000     3.968000000
O    -8.340000000     1.921000000     1.017000000
H    -8.941000000     1.599000000     1.689000000
H    -7.732000000     1.196000000     0.872000000
O    -6.803000000    -3.556000000     1.407000000
H    -7.236000000    -2.829000000     1.852000000
H    -6.840000000    -3.325000000     0.479000000
O    -8.224000000    -1.191000000     2.723000000
H    -7.783000000    -0.485000000     3.196000000
H    -9.098000000    -0.847000000     2.540000000
O    -4.565000000    -4.042000000     8.439000000
H    -4.646000000    -4.325000000     7.528000000
H    -3.671000000    -4.280000000     8.685000000
O    -3.631000000    -7.728000000     1.601000000
H    -3.978000000    -6.988000000     1.102000000
H    -4.189000000    -7.778000000     2.376000000
O    -4.187000000    -0.488000000     5.361000000
H    -4.061000000    -0.502000000     4.412000000
H    -3.349000000    -0.783000000     5.718000000
O    -1.319000000    -8.068000000     3.975000000
H    -0.815000000    -8.584000000     3.345000000
H    -1.421000000    -7.214000000     3.556000000
O    -4.501000000    -3.425000000     3.687000000
H    -3.818000000    -2.871000000     3.310000000
H    -4.959000000    -3.790000000     2.930000000
O    -5.347000000    -1.513000000     7.745000000
H    -4.937000000    -2.355000000     7.940000000
H    -5.089000000    -1.324000000     6.843000000
O    -6.823000000    -0.448000000     0.053000000
H    -7.381000000    -0.455000000    -0.724000000
H    -6.460000000    -1.333000000     0.095000000
O    -6.618000000    -3.154000000    -1.271000000
H    -5.852000000    -3.188000000    -1.844000000
H    -7.276000000    -3.686000000    -1.719000000
O    -7.785000000    -5.782000000     2.829000000
H    -8.576000000    -5.456000000     3.258000000
H    -7.427000000    -5.018000000     2.376000000
O    -5.913000000     1.575000000     6.173000000
H    -5.392000000     2.338000000     5.924000000
H    -5.486000000     0.840000000     5.732000000
O    -2.774000000    -3.103000000     5.671000000
H    -3.516000000    -3.154000000     5.068000000
H    -2.024000000    -2.903000000     5.111000000
