215
-1449.77924
C    -1.337000000     2.353000000    -4.586000000
H    -1.622000000     1.348000000    -4.886000000
C    -0.041000000     2.572000000    -4.196000000
C     0.255000000     3.865000000    -3.770000000
H     1.282000000     4.120000000    -3.518000000
C     0.956000000     1.415000000    -3.943000000
O     0.849000000     0.304000000    -4.895000000
H     0.865000000     1.024000000    -2.919000000
O     2.233000000     1.990000000    -4.061000000
C     3.130000000     1.548000000    -3.183000000
C     3.422000000     2.389000000    -2.075000000
H     3.002000000     3.391000000    -2.055000000
C     4.044000000     1.880000000    -0.906000000
O     4.198000000     2.684000000     0.168000000
C     4.667000000     0.624000000    -1.020000000
C     5.439000000     0.212000000     0.208000000
H     6.141000000    -0.591000000    -0.025000000
C     4.541000000    -0.429000000     1.274000000
C     4.394000000    -1.777000000     1.313000000
H     4.921000000    -2.433000000     0.625000000
H     5.953000000     1.062000000     0.663000000
C     4.431000000    -0.164000000    -2.115000000
H     4.836000000    -1.173000000    -2.112000000
C     3.669000000     0.249000000    -3.164000000
C     3.513000000    -0.732000000    -4.326000000
H     4.376000000    -1.369000000    -4.528000000
H     3.373000000    -0.174000000    -5.254000000
C     2.252000000    -1.521000000    -4.037000000
C     2.404000000    -2.755000000    -3.431000000
H     3.397000000    -3.142000000    -3.216000000
C     0.977000000    -0.958000000    -4.358000000
C    -0.152000000    -1.701000000    -4.122000000
H    -1.140000000    -1.295000000    -4.328000000
C    -0.041000000    -2.970000000    -3.569000000
O    -1.193000000    -3.595000000    -3.264000000
C    -1.577000000    -3.473000000    -1.819000000
C    -3.049000000    -3.143000000    -1.525000000
C    -3.768000000    -3.867000000    -0.569000000
H    -3.254000000    -4.551000000     0.101000000
C    -3.700000000    -2.350000000    -2.454000000
H    -3.180000000    -1.896000000    -3.293000000
O    -1.248000000    -4.773000000    -1.200000000
H    -0.847000000    -2.714000000    -1.504000000
C     1.213000000    -3.493000000    -3.196000000
C     1.332000000    -4.808000000    -2.428000000
H     2.284000000    -5.285000000    -2.671000000
H     0.671000000    -5.588000000    -2.811000000
C     1.166000000    -4.667000000    -0.899000000
C     2.248000000    -4.472000000    -0.024000000
H     3.214000000    -4.575000000    -0.512000000
C    -0.147000000    -4.669000000    -0.354000000
C    -0.395000000    -4.438000000     0.979000000
H    -1.405000000    -4.348000000     1.372000000
C     0.664000000    -4.258000000     1.819000000
O     0.407000000    -3.812000000     3.088000000
C     0.489000000    -2.441000000     3.220000000
C    -0.676000000    -1.892000000     4.069000000
C    -1.885000000    -2.607000000     4.076000000
H    -1.927000000    -3.624000000     3.694000000
C    -0.604000000    -0.696000000     4.820000000
H     0.303000000    -0.099000000     4.772000000
O     1.723000000    -1.992000000     3.836000000
H     0.269000000    -1.913000000     2.280000000
C     2.003000000    -4.211000000     1.332000000
C     3.164000000    -3.880000000     2.155000000
H     3.992000000    -4.387000000     1.655000000
H     2.934000000    -4.352000000     3.112000000
C     3.460000000    -2.395000000     2.208000000
C     2.764000000    -1.565000000     3.124000000
C     3.164000000    -0.230000000     3.198000000
H     2.661000000     0.409000000     3.920000000
C     4.021000000     0.359000000     2.331000000
O     4.028000000     1.761000000     2.350000000
C     3.267000000     2.405000000     1.293000000
H     2.442000000     1.784000000     0.913000000
C     2.633000000     3.645000000     1.854000000
C     2.226000000     4.668000000     1.026000000
H     2.389000000     4.585000000    -0.046000000
C     2.159000000     3.615000000     3.191000000
H     2.430000000     2.686000000     3.687000000
C     1.418000000     4.660000000     3.724000000
O     1.226000000     4.653000000     5.102000000
C     1.193000000     5.738000000     2.885000000
H     0.889000000     6.712000000     3.260000000
C     1.557000000     5.781000000     1.577000000
O     1.487000000     6.983000000     0.811000000
C     1.511000000     7.035000000    -0.603000000
C     0.411000000     6.732000000    -1.423000000
H    -0.523000000     6.505000000    -0.914000000
C     2.751000000     7.222000000    -1.145000000
H     3.647000000     7.488000000    -0.590000000
C     2.983000000     7.058000000    -2.528000000
H     3.965000000     7.232000000    -2.961000000
C     1.853000000     6.688000000    -3.327000000
H     1.972000000     6.520000000    -4.395000000
C     0.594000000     6.584000000    -2.764000000
O    -0.488000000     6.228000000    -3.537000000
C    -0.712000000     4.903000000    -3.787000000
C    -2.003000000     4.628000000    -4.159000000
H    -2.824000000     5.340000000    -4.178000000
C    -2.352000000     3.303000000    -4.466000000
O    -3.663000000     3.038000000    -4.902000000
C    -4.206000000     1.737000000    -4.946000000
C    -4.695000000     1.048000000    -3.811000000
H    -4.706000000     1.538000000    -2.841000000
C    -4.165000000     1.075000000    -6.153000000
H    -3.845000000     1.568000000    -7.068000000
C    -4.515000000    -0.249000000    -6.308000000
H    -4.629000000    -0.615000000    -7.325000000
C    -4.893000000    -0.985000000    -5.185000000
H    -5.264000000    -2.006000000    -5.228000000
C    -5.130000000    -0.316000000    -3.978000000
O    -5.703000000    -0.973000000    -2.987000000
C    -5.032000000    -2.009000000    -2.283000000
C    -5.776000000    -2.706000000    -1.353000000
H    -6.836000000    -2.467000000    -1.315000000
C    -5.148000000    -3.632000000    -0.503000000
O    -5.911000000    -4.244000000     0.508000000
C    -5.526000000    -4.519000000     1.824000000
C    -5.006000000    -3.538000000     2.637000000
H    -4.987000000    -2.522000000     2.251000000
C    -5.561000000    -5.808000000     2.334000000
H    -5.972000000    -6.552000000     1.656000000
C    -5.176000000    -6.114000000     3.650000000
H    -5.188000000    -7.145000000     3.994000000
C    -4.647000000    -5.041000000     4.435000000
H    -4.266000000    -5.135000000     5.449000000
C    -4.494000000    -3.808000000     3.865000000
O    -4.267000000    -2.787000000     4.736000000
C    -2.977000000    -2.157000000     4.818000000
C    -2.955000000    -0.883000000     5.375000000
H    -3.906000000    -0.620000000     5.832000000
C    -1.759000000    -0.184000000     5.433000000
O    -1.697000000     0.971000000     6.225000000
C    -0.554000000     1.724000000     6.450000000
C     0.301000000     1.322000000     7.466000000
H    -0.012000000     0.509000000     8.116000000
C     1.577000000     1.936000000     7.591000000
H     2.310000000     1.588000000     8.315000000
C     1.842000000     3.087000000     6.792000000
H     2.783000000     3.629000000     6.820000000
C     0.915000000     3.516000000     5.856000000
C    -0.254000000     2.820000000     5.668000000
H    -0.964000000     3.176000000     4.926000000
C    -2.625000000    -0.263000000     0.532000000
H    -3.557000000    -0.671000000     0.913000000
C    -1.555000000    -1.124000000     0.746000000
H    -1.664000000    -2.070000000     1.268000000
C    -0.364000000    -0.718000000     0.185000000
H     0.538000000    -1.383000000     0.297000000
C    -0.212000000     0.464000000    -0.489000000
H     0.693000000     0.726000000    -1.031000000
C    -1.305000000     1.379000000    -0.545000000
H    -1.083000000     2.305000000    -1.070000000
C    -2.496000000     0.987000000    -0.009000000
C    -3.774000000     1.868000000    -0.081000000
O    -3.728000000     2.975000000    -0.579000000
O    -4.786000000     1.565000000     0.544000000
O    -5.627000000     8.011000000    -1.624000000
H    -6.257000000     7.590000000    -1.040000000
H    -4.779000000     7.653000000    -1.361000000
O    -5.284000000     8.458000000     1.386000000
H    -5.892000000     7.723000000     1.466000000
H    -4.636000000     8.165000000     0.746000000
O    -6.282000000     3.797000000     0.044000000
H    -6.636000000     3.523000000     0.890000000
H    -5.522000000     3.231000000    -0.092000000
O    -0.472000000     2.747000000     1.793000000
H     0.336000000     3.259000000     1.825000000
H    -0.210000000     1.909000000     1.412000000
O    -8.448000000    -1.688000000    -3.121000000
H    -8.290000000    -1.640000000    -4.063000000
H    -7.598000000    -1.496000000    -2.725000000
O    -3.514000000     6.869000000    -0.212000000
H    -3.119000000     6.345000000     0.484000000
H    -3.743000000     6.234000000    -0.890000000
O    -6.555000000     4.634000000    -5.892000000
H    -6.524000000     3.951000000    -5.223000000
H    -6.833000000     4.179000000    -6.687000000
O    -5.082000000     3.141000000     5.261000000
H    -4.658000000     3.986000000     5.112000000
H    -4.602000000     2.757000000     5.994000000
O    -6.498000000     3.484000000     2.958000000
H    -5.992000000     3.161000000     3.704000000
H    -7.009000000     4.211000000     3.314000000
O    -4.860000000     0.764000000     3.015000000
H    -4.543000000     1.597000000     3.364000000
H    -4.835000000     0.876000000     2.065000000
O    -7.232000000     0.987000000     0.862000000
H    -6.334000000     1.204000000     0.610000000
H    -7.137000000     0.301000000     1.522000000
O    -1.669000000     6.912000000     2.871000000
H    -1.818000000     6.077000000     2.426000000
H    -1.761000000     6.707000000     3.801000000
O    -7.390000000    -0.729000000     3.241000000
H    -6.492000000    -0.476000000     3.456000000
H    -7.934000000    -0.067000000     3.667000000
O    -7.116000000     6.367000000     0.272000000
H    -6.760000000     5.517000000     0.014000000
H    -7.842000000     6.156000000     0.859000000
O    -8.013000000     2.443000000    -4.383000000
H    -8.268000000     2.868000000    -3.564000000
H    -7.661000000     1.595000000    -4.114000000
O    -4.607000000     5.100000000    -2.065000000
H    -4.193000000     4.382000000    -1.586000000
H    -5.543000000     4.899000000    -2.034000000
O    -9.520000000     1.481000000    -0.842000000
H    -9.306000000     2.352000000    -1.177000000
H    -8.764000000     1.238000000    -0.307000000
O    -2.661000000     4.414000000     1.392000000
H    -2.039000000     3.711000000     1.576000000
H    -3.353000000     3.994000000     0.881000000
O    -8.209000000     3.504000000    -1.916000000
H    -8.661000000     4.346000000    -1.981000000
H    -7.434000000     3.689000000    -1.386000000
