215
-1454.22239
C    -1.738000000     3.918000000    -1.875000000
H    -2.380000000     3.074000000    -2.116000000
C    -0.471000000     3.949000000    -2.359000000
C     0.371000000     4.982000000    -2.129000000
H     1.425000000     4.827000000    -2.349000000
C    -0.042000000     2.750000000    -3.225000000
O    -1.136000000     2.317000000    -4.007000000
H     0.243000000     1.972000000    -2.502000000
O     1.163000000     3.005000000    -4.020000000
C     2.164000000     2.072000000    -3.818000000
C     3.102000000     2.234000000    -2.822000000
H     3.057000000     3.073000000    -2.132000000
C     4.023000000     1.236000000    -2.521000000
O     4.811000000     1.479000000    -1.393000000
C     3.888000000    -0.026000000    -3.142000000
C     4.839000000    -1.162000000    -2.776000000
H     4.806000000    -1.718000000    -3.715000000
C     4.201000000    -1.959000000    -1.658000000
C     3.411000000    -3.050000000    -2.005000000
H     3.342000000    -3.305000000    -3.059000000
H     5.860000000    -0.802000000    -2.635000000
C     2.842000000    -0.192000000    -4.092000000
H     2.635000000    -1.201000000    -4.438000000
C     1.947000000     0.829000000    -4.404000000
C     0.738000000     0.573000000    -5.318000000
H     0.937000000    -0.231000000    -6.029000000
H     0.574000000     1.413000000    -5.996000000
C    -0.571000000     0.082000000    -4.740000000
C    -0.876000000    -1.290000000    -4.615000000
H    -0.094000000    -2.018000000    -4.817000000
C    -1.478000000     1.010000000    -4.135000000
C    -2.566000000     0.453000000    -3.436000000
H    -3.232000000     1.092000000    -2.862000000
C    -2.841000000    -0.930000000    -3.387000000
O    -3.899000000    -1.335000000    -2.597000000
C    -3.552000000    -1.836000000    -1.231000000
C    -4.649000000    -1.225000000    -0.271000000
C    -4.913000000    -1.908000000     0.902000000
H    -4.322000000    -2.788000000     1.140000000
C    -5.234000000     0.033000000    -0.532000000
H    -4.986000000     0.605000000    -1.422000000
O    -3.500000000    -3.263000000    -1.347000000
H    -2.613000000    -1.458000000    -0.801000000
C    -2.008000000    -1.812000000    -4.027000000
C    -2.173000000    -3.394000000    -3.883000000
H    -1.668000000    -3.839000000    -4.743000000
H    -3.242000000    -3.615000000    -3.876000000
C    -1.439000000    -3.849000000    -2.642000000
C    -0.154000000    -4.271000000    -2.628000000
H     0.466000000    -4.387000000    -3.514000000
C    -2.206000000    -3.883000000    -1.447000000
C    -1.643000000    -4.346000000    -0.286000000
H    -2.232000000    -4.295000000     0.626000000
C    -0.326000000    -4.808000000    -0.287000000
O     0.193000000    -5.109000000     0.918000000
C     0.844000000    -3.916000000     1.607000000
C     0.456000000    -3.908000000     3.079000000
C    -0.842000000    -4.146000000     3.397000000
H    -1.455000000    -4.692000000     2.684000000
C     1.230000000    -3.127000000     3.916000000
H     2.196000000    -2.789000000     3.549000000
O     2.327000000    -4.066000000     1.463000000
H     0.517000000    -2.975000000     1.142000000
C     0.444000000    -4.714000000    -1.420000000
C     1.930000000    -5.043000000    -1.399000000
H     2.177000000    -5.328000000    -2.424000000
H     2.158000000    -5.919000000    -0.788000000
C     2.730000000    -3.815000000    -1.014000000
C     2.974000000    -3.470000000     0.362000000
C     3.707000000    -2.306000000     0.689000000
H     3.768000000    -1.970000000     1.720000000
C     4.254000000    -1.512000000    -0.345000000
O     4.949000000    -0.412000000     0.017000000
C     4.336000000     0.893000000    -0.165000000
H     3.273000000     0.611000000    -0.150000000
C     4.455000000     1.819000000     1.039000000
C     4.330000000     3.179000000     0.842000000
H     4.317000000     3.630000000    -0.147000000
C     4.451000000     1.269000000     2.301000000
H     4.519000000     0.188000000     2.386000000
C     4.517000000     2.118000000     3.423000000
O     4.647000000     1.659000000     4.761000000
C     4.445000000     3.507000000     3.182000000
H     4.572000000     4.110000000     4.077000000
C     4.405000000     4.022000000     1.893000000
O     4.364000000     5.394000000     1.792000000
C     3.897000000     6.047000000     0.691000000
C     2.551000000     6.264000000     0.483000000
H     1.820000000     5.928000000     1.213000000
C     4.789000000     6.410000000    -0.291000000
H     5.774000000     5.951000000    -0.296000000
C     4.364000000     7.165000000    -1.409000000
H     5.108000000     7.659000000    -2.028000000
C     3.013000000     7.456000000    -1.582000000
H     2.620000000     8.008000000    -2.432000000
C     2.126000000     6.962000000    -0.656000000
O     0.742000000     7.126000000    -0.967000000
C    -0.049000000     6.051000000    -1.280000000
C    -1.392000000     6.024000000    -0.758000000
H    -1.678000000     6.747000000     0.002000000
C    -2.218000000     4.933000000    -1.105000000
O    -3.459000000     4.984000000    -0.522000000
C    -4.672000000     4.396000000    -0.981000000
C    -5.128000000     3.334000000    -0.188000000
H    -4.530000000     2.897000000     0.607000000
C    -5.409000000     4.807000000    -2.111000000
H    -5.003000000     5.676000000    -2.624000000
C    -6.606000000     4.174000000    -2.461000000
H    -7.313000000     4.567000000    -3.186000000
C    -7.077000000     3.135000000    -1.680000000
H    -8.103000000     2.795000000    -1.797000000
C    -6.305000000     2.670000000    -0.594000000
O    -6.805000000     1.703000000     0.229000000
C    -6.187000000     0.456000000     0.372000000
C    -6.555000000    -0.256000000     1.571000000
H    -7.276000000     0.115000000     2.295000000
C    -5.834000000    -1.415000000     1.845000000
O    -6.142000000    -2.157000000     3.025000000
C    -5.485000000    -3.360000000     3.299000000
C    -4.401000000    -3.219000000     4.136000000
H    -4.125000000    -2.230000000     4.492000000
C    -5.861000000    -4.629000000     2.806000000
H    -6.812000000    -4.774000000     2.299000000
C    -5.098000000    -5.732000000     3.100000000
H    -5.389000000    -6.726000000     2.769000000
C    -3.980000000    -5.577000000     3.923000000
H    -3.418000000    -6.472000000     4.178000000
C    -3.603000000    -4.289000000     4.412000000
O    -2.539000000    -4.162000000     5.203000000
C    -1.283000000    -3.849000000     4.715000000
C    -0.500000000    -3.056000000     5.546000000
H    -0.854000000    -2.776000000     6.535000000
C     0.779000000    -2.637000000     5.176000000
O     1.483000000    -1.747000000     5.969000000
C     2.778000000    -1.337000000     5.652000000
C     3.756000000    -2.308000000     5.583000000
H     3.520000000    -3.354000000     5.761000000
C     5.078000000    -1.896000000     5.238000000
H     5.865000000    -2.639000000     5.132000000
C     5.331000000    -0.537000000     4.984000000
H     6.342000000    -0.332000000     4.640000000
C     4.346000000     0.411000000     5.129000000
C     3.003000000     0.014000000     5.422000000
H     2.156000000     0.692000000     5.483000000
C    -2.150000000     0.091000000     2.391000000
H    -3.003000000    -0.238000000     2.979000000
C    -1.456000000    -0.784000000     1.582000000
H    -1.593000000    -1.862000000     1.617000000
C    -0.508000000    -0.274000000     0.730000000
H     0.107000000    -0.930000000     0.203000000
C    -0.250000000     1.088000000     0.703000000
H     0.575000000     1.456000000     0.098000000
C    -0.967000000     1.913000000     1.534000000
H    -0.800000000     2.987000000     1.537000000
C    -1.922000000     1.500000000     2.379000000
C    -2.742000000     2.410000000     3.217000000
O    -2.465000000     3.589000000     3.208000000
O    -3.661000000     1.960000000     3.898000000
O    -2.453000000     9.004000000     2.626000000
H    -2.212000000     8.091000000     2.786000000
H    -1.812000000     9.312000000     1.986000000
O    -8.203000000     5.212000000     4.998000000
H    -8.347000000     4.608000000     4.269000000
H    -7.327000000     5.568000000     4.844000000
O     0.698000000     3.157000000     4.733000000
H     0.831000000     3.885000000     4.126000000
H     1.175000000     3.413000000     5.522000000
O    -0.530000000     0.701000000     5.200000000
H    -0.381000000     1.542000000     4.768000000
H    -0.190000000     0.052000000     4.585000000
O    -8.191000000     5.096000000     0.449000000
H    -7.314000000     4.727000000     0.349000000
H    -8.367000000     5.525000000    -0.389000000
O    -2.737000000     3.573000000     6.207000000
H    -2.714000000     3.211000000     5.321000000
H    -3.666000000     3.729000000     6.378000000
O    -0.794000000     2.277000000     7.820000000
H    -1.675000000     2.611000000     7.654000000
H    -0.501000000     1.940000000     6.973000000
O    -7.052000000    -0.795000000     6.488000000
H    -6.455000000    -0.700000000     5.746000000
H    -7.089000000    -1.738000000     6.648000000
O    -6.410000000     1.342000000     4.389000000
H    -6.280000000     1.905000000     5.152000000
H    -5.554000000     1.316000000     3.962000000
O    -5.089000000     0.584000000     7.919000000
H    -4.417000000     0.665000000     7.243000000
H    -5.906000000     0.471000000     7.433000000
O    -0.412000000    -0.638000000     7.881000000
H     0.060000000    -0.548000000     7.052000000
H    -0.622000000     0.260000000     8.135000000
O    -2.022000000     6.431000000     5.773000000
H    -1.872000000     5.485000000     5.759000000
H    -2.931000000     6.525000000     6.059000000
O    -1.908000000     6.299000000     3.039000000
H    -1.933000000     6.486000000     3.978000000
H    -2.057000000     5.355000000     2.979000000
O    -5.120000000     6.934000000     1.914000000
H    -5.028000000     6.029000000     1.616000000
H    -4.773000000     7.461000000     1.194000000
O    -8.518000000     3.634000000     2.827000000
H    -7.634000000     3.289000000     2.955000000
H    -8.433000000     4.244000000     2.094000000
O    -5.521000000     4.057000000     3.700000000
H    -5.222000000     4.796000000     3.170000000
H    -4.747000000     3.504000000     3.799000000
O    -3.286000000     0.276000000     5.823000000
H    -2.399000000    -0.082000000     5.798000000
H    -3.311000000     0.904000000     5.100000000
O    -5.725000000     4.183000000     6.837000000
H    -5.928000000     4.599000000     5.999000000
H    -5.028000000     4.721000000     7.210000000
O    -5.748000000     6.634000000     5.125000000
H    -5.910000000     7.449000000     5.599000000
H    -5.434000000     6.915000000     4.265000000
