215
-1434.66578
C    -2.098000000     4.797000000    -2.041000000
H    -2.823000000     4.155000000    -2.536000000
C    -0.736000000     4.383000000    -2.137000000
C     0.219000000     5.091000000    -1.412000000
H     1.292000000     4.938000000    -1.500000000
C    -0.310000000     3.240000000    -3.077000000
O    -1.352000000     2.854000000    -4.048000000
H    -0.072000000     2.355000000    -2.469000000
O     0.965000000     3.563000000    -3.773000000
C     1.835000000     2.525000000    -3.681000000
C     2.693000000     2.440000000    -2.628000000
H     2.722000000     3.294000000    -1.955000000
C     3.566000000     1.378000000    -2.445000000
O     4.319000000     1.441000000    -1.263000000
C     3.513000000     0.245000000    -3.300000000
C     4.459000000    -0.909000000    -3.103000000
H     4.661000000    -1.290000000    -4.107000000
C     3.892000000    -1.931000000    -2.131000000
C     3.077000000    -3.063000000    -2.546000000
H     2.885000000    -3.081000000    -3.615000000
H     5.461000000    -0.544000000    -2.869000000
C     2.558000000     0.284000000    -4.285000000
H     2.420000000    -0.593000000    -4.913000000
C     1.734000000     1.380000000    -4.514000000
C     0.560000000     1.253000000    -5.488000000
H     0.798000000     0.807000000    -6.456000000
H     0.341000000     2.254000000    -5.865000000
C    -0.730000000     0.713000000    -4.967000000
C    -0.976000000    -0.661000000    -4.878000000
H    -0.196000000    -1.313000000    -5.262000000
C    -1.592000000     1.532000000    -4.227000000
C    -2.693000000     1.043000000    -3.643000000
H    -3.374000000     1.707000000    -3.116000000
C    -2.941000000    -0.338000000    -3.585000000
O    -4.012000000    -0.789000000    -2.827000000
C    -3.688000000    -1.542000000    -1.587000000
C    -4.518000000    -1.043000000    -0.411000000
C    -4.904000000    -1.823000000     0.661000000
H    -4.715000000    -2.894000000     0.655000000
C    -4.713000000     0.342000000    -0.287000000
H    -4.441000000     0.988000000    -1.118000000
O    -3.662000000    -3.038000000    -1.756000000
H    -2.640000000    -1.380000000    -1.293000000
C    -2.090000000    -1.213000000    -4.293000000
C    -2.250000000    -2.719000000    -4.333000000
H    -1.737000000    -3.014000000    -5.251000000
H    -3.314000000    -2.964000000    -4.343000000
C    -1.671000000    -3.341000000    -3.079000000
C    -0.429000000    -3.890000000    -3.148000000
H     0.205000000    -3.771000000    -4.023000000
C    -2.447000000    -3.533000000    -1.906000000
C    -1.935000000    -4.200000000    -0.774000000
H    -2.531000000    -4.298000000     0.130000000
C    -0.661000000    -4.611000000    -0.872000000
O    -0.183000000    -5.147000000     0.282000000
C     0.636000000    -4.198000000     1.012000000
C     0.391000000    -4.192000000     2.571000000
C    -0.697000000    -4.808000000     3.222000000
H    -1.367000000    -5.457000000     2.663000000
C     1.154000000    -3.321000000     3.279000000
H     2.000000000    -2.787000000     2.853000000
O     2.005000000    -4.351000000     0.680000000
H     0.336000000    -3.220000000     0.607000000
C     0.108000000    -4.547000000    -2.034000000
C     1.534000000    -4.996000000    -2.010000000
H     1.824000000    -5.444000000    -2.963000000
H     1.612000000    -5.760000000    -1.235000000
C     2.473000000    -3.902000000    -1.600000000
C     2.614000000    -3.632000000    -0.259000000
C     3.417000000    -2.627000000     0.165000000
H     3.362000000    -2.449000000     1.236000000
C     4.073000000    -1.756000000    -0.728000000
O     4.697000000    -0.596000000    -0.241000000
C     3.964000000     0.624000000    -0.078000000
H     2.900000000     0.350000000    -0.130000000
C     4.264000000     1.374000000     1.167000000
C     4.078000000     2.762000000     1.311000000
H     3.353000000     3.283000000     0.691000000
C     4.695000000     0.628000000     2.327000000
H     4.817000000    -0.450000000     2.259000000
C     5.004000000     1.240000000     3.475000000
O     5.459000000     0.549000000     4.526000000
C     4.832000000     2.609000000     3.587000000
H     4.905000000     3.049000000     4.579000000
C     4.420000000     3.428000000     2.537000000
O     4.188000000     4.728000000     2.624000000
C     3.784000000     5.552000000     1.574000000
C     2.515000000     5.865000000     1.302000000
H     1.807000000     5.328000000     1.929000000
C     4.770000000     6.142000000     0.785000000
H     5.820000000     5.968000000     1.006000000
C     4.378000000     6.962000000    -0.306000000
H     5.129000000     7.521000000    -0.858000000
C     3.059000000     7.260000000    -0.527000000
H     2.805000000     8.009000000    -1.273000000
C     2.105000000     6.683000000     0.229000000
O     0.713000000     6.949000000     0.124000000
C    -0.151000000     6.157000000    -0.600000000
C    -1.486000000     6.635000000    -0.617000000
H    -1.787000000     7.566000000    -0.142000000
C    -2.456000000     5.885000000    -1.295000000
O    -3.807000000     6.119000000    -1.114000000
C    -4.637000000     5.084000000    -1.000000000
C    -4.532000000     4.192000000     0.110000000
H    -3.748000000     4.271000000     0.858000000
C    -5.651000000     4.974000000    -1.932000000
H    -5.636000000     5.732000000    -2.711000000
C    -6.529000000     3.888000000    -1.861000000
H    -7.262000000     3.687000000    -2.638000000
C    -6.377000000     2.957000000    -0.857000000
H    -6.997000000     2.068000000    -0.766000000
C    -5.501000000     3.150000000     0.170000000
O    -5.581000000     2.183000000     1.158000000
C    -5.262000000     0.867000000     0.948000000
C    -5.501000000     0.057000000     2.028000000
H    -5.920000000     0.473000000     2.941000000
C    -5.391000000    -1.323000000     1.833000000
O    -5.596000000    -2.192000000     2.909000000
C    -4.909000000    -3.326000000     3.235000000
C    -3.744000000    -3.446000000     4.046000000
H    -3.294000000    -2.509000000     4.364000000
C    -5.626000000    -4.504000000     2.918000000
H    -6.500000000    -4.460000000     2.272000000
C    -5.187000000    -5.767000000     3.337000000
H    -5.775000000    -6.680000000     3.284000000
C    -4.030000000    -5.847000000     4.112000000
H    -3.685000000    -6.810000000     4.478000000
C    -3.369000000    -4.713000000     4.461000000
O    -2.187000000    -4.800000000     5.124000000
C    -1.022000000    -4.423000000     4.537000000
C    -0.253000000    -3.539000000     5.190000000
H    -0.497000000    -3.145000000     6.173000000
C     0.936000000    -3.044000000     4.657000000
O     1.618000000    -2.156000000     5.388000000
C     3.021000000    -2.099000000     5.290000000
C     3.832000000    -3.219000000     5.472000000
H     3.454000000    -4.221000000     5.658000000
C     5.232000000    -3.055000000     5.378000000
H     5.849000000    -3.933000000     5.551000000
C     5.783000000    -1.840000000     5.056000000
H     6.863000000    -1.748000000     4.976000000
C     4.969000000    -0.740000000     4.888000000
C     3.580000000    -0.868000000     5.066000000
H     3.012000000     0.056000000     4.997000000
C    -1.742000000     0.349000000     2.250000000
H    -2.507000000    -0.166000000     2.826000000
C    -0.845000000    -0.332000000     1.451000000
H    -0.963000000    -1.413000000     1.427000000
C     0.076000000     0.451000000     0.735000000
H     0.766000000    -0.045000000     0.096000000
C     0.070000000     1.830000000     0.854000000
H     0.758000000     2.421000000     0.255000000
C    -0.827000000     2.433000000     1.711000000
H    -0.782000000     3.500000000     1.915000000
C    -1.842000000     1.722000000     2.335000000
C    -2.847000000     2.386000000     3.272000000
O    -2.880000000     3.625000000     3.337000000
O    -3.572000000     1.686000000     3.989000000
O    -3.370000000     7.127000000     6.992000000
H    -3.945000000     7.586000000     6.379000000
H    -3.300000000     6.241000000     6.637000000
O     1.008000000     1.273000000     4.303000000
H     0.706000000     0.916000000     3.468000000
H     0.892000000     2.220000000     4.215000000
O    -4.098000000     2.000000000     7.498000000
H    -4.601000000     1.495000000     8.136000000
H    -3.667000000     1.340000000     6.955000000
O    -0.144000000     4.005000000     4.869000000
H    -0.919000000     4.111000000     5.422000000
H     0.557000000     4.443000000     5.353000000
O    -1.028000000     7.962000000     4.193000000
H    -0.757000000     7.301000000     4.830000000
H    -1.538000000     7.476000000     3.545000000
O    -2.994000000     0.074000000     6.062000000
H    -3.745000000    -0.499000000     6.220000000
H    -3.294000000     0.681000000     5.386000000
O     0.355000000     4.555000000     7.860000000
H     0.106000000     3.835000000     8.440000000
H     1.150000000     4.915000000     8.254000000
O    -4.728000000     7.895000000     2.247000000
H    -5.273000000     7.798000000     1.466000000
H    -3.945000000     7.378000000     2.058000000
O    -2.675000000     6.261000000     2.741000000
H    -3.401000000     6.251000000     3.365000000
H    -2.312000000     5.376000000     2.784000000
O    -5.704000000     4.457000000     3.612000000
H    -6.104000000     3.693000000     4.027000000
H    -4.775000000     4.236000000     3.547000000
O    -3.522000000     4.423000000     5.924000000
H    -3.909000000     3.737000000     6.469000000
H    -3.139000000     3.952000000     5.184000000
O    -7.207000000    -0.484000000     7.018000000
H    -7.935000000    -0.302000000     7.611000000
H    -7.151000000     0.293000000     6.461000000
O    -8.051000000     4.854000000     2.011000000
H    -8.040000000     3.957000000     1.675000000
H    -7.459000000     4.835000000     2.763000000
O    -6.034000000     2.179000000     5.167000000
H    -5.775000000     2.836000000     5.813000000
H    -5.208000000     1.793000000     4.873000000
O     0.078000000     0.331000000     6.660000000
H     0.326000000     0.602000000     5.776000000
H    -0.870000000     0.459000000     6.693000000
O    -8.800000000     2.377000000     1.547000000
H    -9.747000000     2.255000000     1.619000000
H    -8.449000000     1.490000000     1.470000000
O    -6.293000000     3.662000000     7.793000000
H    -6.321000000     4.361000000     8.446000000
H    -5.944000000     2.906000000     8.265000000
O    -2.563000000     4.199000000     9.386000000
H    -1.709000000     3.817000000     9.588000000
H    -2.983000000     3.556000000     8.813000000
O    -5.426000000     6.949000000     4.566000000
H    -5.345000000     7.661000000     3.931000000
H    -5.715000000     6.198000000     4.048000000
