215
-1438.87934
C    -2.267000000     4.717000000    -2.213000000
H    -3.039000000     4.052000000    -2.593000000
C    -0.886000000     4.473000000    -2.416000000
C     0.123000000     5.259000000    -1.771000000
H     1.173000000     4.988000000    -1.854000000
C    -0.436000000     3.230000000    -3.139000000
O    -1.465000000     2.648000000    -4.020000000
H    -0.232000000     2.454000000    -2.386000000
O     0.735000000     3.441000000    -3.900000000
C     1.678000000     2.414000000    -3.719000000
C     2.563000000     2.547000000    -2.676000000
H     2.790000000     3.401000000    -2.043000000
C     3.504000000     1.493000000    -2.455000000
O     4.333000000     1.543000000    -1.396000000
C     3.494000000     0.343000000    -3.227000000
C     4.402000000    -0.834000000    -2.942000000
H     4.536000000    -1.346000000    -3.897000000
C     3.890000000    -1.775000000    -1.911000000
C     3.143000000    -2.861000000    -2.275000000
H     3.015000000    -3.123000000    -3.322000000
H     5.408000000    -0.531000000    -2.645000000
C     2.490000000     0.265000000    -4.177000000
H     2.374000000    -0.649000000    -4.754000000
C     1.643000000     1.330000000    -4.504000000
C     0.464000000     1.034000000    -5.486000000
H     0.827000000     0.317000000    -6.226000000
H     0.084000000     1.970000000    -5.901000000
C    -0.800000000     0.491000000    -4.798000000
C    -1.032000000    -0.894000000    -4.791000000
H    -0.368000000    -1.564000000    -5.331000000
C    -1.594000000     1.302000000    -3.986000000
C    -2.629000000     0.755000000    -3.194000000
H    -3.201000000     1.405000000    -2.537000000
C    -2.854000000    -0.599000000    -3.288000000
O    -3.885000000    -1.038000000    -2.505000000
C    -3.489000000    -1.590000000    -1.256000000
C    -4.346000000    -1.130000000    -0.121000000
C    -4.661000000    -1.966000000     0.970000000
H    -4.260000000    -2.975000000     1.018000000
C    -4.773000000     0.159000000    -0.062000000
H    -4.501000000     0.915000000    -0.794000000
O    -3.514000000    -3.096000000    -1.430000000
H    -2.507000000    -1.207000000    -0.940000000
C    -2.052000000    -1.462000000    -4.088000000
C    -2.306000000    -2.972000000    -4.110000000
H    -1.901000000    -3.364000000    -5.046000000
H    -3.372000000    -3.205000000    -4.054000000
C    -1.674000000    -3.701000000    -2.916000000
C    -0.340000000    -4.161000000    -2.902000000
H     0.215000000    -3.978000000    -3.819000000
C    -2.344000000    -3.730000000    -1.740000000
C    -1.778000000    -4.266000000    -0.586000000
H    -2.349000000    -4.376000000     0.333000000
C    -0.510000000    -4.653000000    -0.573000000
O     0.109000000    -4.892000000     0.608000000
C     0.961000000    -3.908000000     1.254000000
C     0.787000000    -3.843000000     2.764000000
C    -0.457000000    -4.223000000     3.255000000
H    -1.196000000    -4.612000000     2.559000000
C     1.788000000    -3.364000000     3.643000000
H     2.723000000    -2.973000000     3.251000000
O     2.292000000    -4.273000000     0.909000000
H     0.733000000    -2.920000000     0.826000000
C     0.253000000    -4.620000000    -1.760000000
C     1.754000000    -4.952000000    -1.885000000
H     1.945000000    -5.191000000    -2.933000000
H     2.007000000    -5.902000000    -1.409000000
C     2.584000000    -3.771000000    -1.381000000
C     2.919000000    -3.559000000    -0.045000000
C     3.700000000    -2.441000000     0.377000000
H     3.843000000    -2.282000000     1.443000000
C     4.113000000    -1.532000000    -0.553000000
O     4.704000000    -0.416000000    -0.141000000
C     3.991000000     0.810000000    -0.160000000
H     2.922000000     0.577000000    -0.273000000
C     4.342000000     1.629000000     1.141000000
C     4.090000000     2.969000000     1.277000000
H     3.722000000     3.475000000     0.388000000
C     4.605000000     1.017000000     2.373000000
H     4.634000000    -0.069000000     2.339000000
C     4.842000000     1.754000000     3.564000000
O     5.056000000     1.046000000     4.755000000
C     4.693000000     3.156000000     3.548000000
H     4.916000000     3.650000000     4.490000000
C     4.227000000     3.741000000     2.389000000
O     3.991000000     5.155000000     2.366000000
C     3.571000000     5.783000000     1.201000000
C     2.258000000     6.247000000     1.092000000
H     1.564000000     6.012000000     1.894000000
C     4.458000000     6.181000000     0.159000000
H     5.507000000     5.930000000     0.296000000
C     3.958000000     6.757000000    -0.985000000
H     4.631000000     6.957000000    -1.814000000
C     2.595000000     7.025000000    -1.088000000
H     2.224000000     7.429000000    -2.027000000
C     1.778000000     6.907000000    -0.026000000
O     0.396000000     7.019000000    -0.096000000
C    -0.355000000     6.282000000    -0.954000000
C    -1.756000000     6.496000000    -0.748000000
H    -2.029000000     7.296000000    -0.065000000
C    -2.707000000     5.731000000    -1.438000000
O    -4.074000000     5.870000000    -1.155000000
C    -4.991000000     4.844000000    -1.181000000
C    -5.074000000     3.970000000    -0.125000000
H    -4.524000000     4.285000000     0.757000000
C    -5.793000000     4.577000000    -2.331000000
H    -5.865000000     5.220000000    -3.205000000
C    -6.538000000     3.405000000    -2.400000000
H    -7.125000000     3.195000000    -3.291000000
C    -6.624000000     2.577000000    -1.293000000
H    -7.213000000     1.665000000    -1.332000000
C    -5.924000000     2.878000000    -0.131000000
O    -5.832000000     2.025000000     0.965000000
C    -5.471000000     0.678000000     1.015000000
C    -5.855000000    -0.236000000     1.995000000
H    -6.496000000     0.103000000     2.805000000
C    -5.469000000    -1.504000000     1.968000000
O    -5.732000000    -2.331000000     3.071000000
C    -5.050000000    -3.465000000     3.438000000
C    -3.788000000    -3.401000000     4.023000000
H    -3.290000000    -2.459000000     4.238000000
C    -5.708000000    -4.717000000     3.343000000
H    -6.733000000    -4.756000000     2.983000000
C    -5.070000000    -5.871000000     3.820000000
H    -5.491000000    -6.870000000     3.746000000
C    -3.730000000    -5.843000000     4.175000000
H    -3.303000000    -6.768000000     4.552000000
C    -3.132000000    -4.590000000     4.336000000
O    -2.032000000    -4.593000000     5.073000000
C    -0.796000000    -4.167000000     4.610000000
C     0.162000000    -3.692000000     5.501000000
H    -0.119000000    -3.452000000     6.523000000
C     1.409000000    -3.222000000     5.003000000
O     2.229000000    -2.643000000     5.944000000
C     3.490000000    -2.141000000     5.585000000
C     4.551000000    -2.993000000     5.279000000
H     4.335000000    -4.053000000     5.385000000
C     5.646000000    -2.531000000     4.532000000
H     6.405000000    -3.079000000     3.979000000
C     5.719000000    -1.193000000     4.362000000
H     6.579000000    -0.791000000     3.832000000
C     4.763000000    -0.316000000     4.844000000
C     3.551000000    -0.763000000     5.317000000
H     2.778000000    -0.015000000     5.476000000
C    -1.755000000     0.818000000     1.811000000
H    -2.625000000     0.268000000     2.161000000
C    -0.977000000     0.146000000     0.893000000
H    -1.147000000    -0.890000000     0.612000000
C     0.109000000     0.747000000     0.316000000
H     0.749000000     0.118000000    -0.342000000
C     0.577000000     2.015000000     0.665000000
H     1.454000000     2.439000000     0.183000000
C    -0.254000000     2.687000000     1.566000000
H    -0.115000000     3.723000000     1.866000000
C    -1.398000000     2.090000000     2.206000000
C    -2.212000000     2.857000000     3.301000000
O    -1.988000000     3.999000000     3.554000000
O    -3.186000000     2.348000000     3.817000000
O    -1.679000000    -1.854000000     8.694000000
H    -1.597000000    -1.390000000     7.860000000
H    -0.778000000    -2.052000000     8.948000000
O     0.798000000     8.371000000     4.645000000
H     1.068000000     8.256000000     5.556000000
H     0.420000000     7.527000000     4.398000000
O     1.149000000     4.162000000     6.216000000
H     0.861000000     4.550000000     7.042000000
H     2.038000000     3.855000000     6.393000000
O     0.286000000     1.283000000     5.067000000
H     0.012000000     1.254000000     4.151000000
H     0.627000000     2.169000000     5.188000000
O     1.574000000     0.975000000     8.680000000
H     0.679000000     1.279000000     8.531000000
H     2.095000000     1.429000000     8.018000000
O    -2.174000000     2.993000000     6.562000000
H    -2.513000000     2.135000000     6.304000000
H    -2.170000000     3.502000000     5.752000000
O    -0.815000000     2.146000000     8.631000000
H    -1.655000000     1.977000000     9.059000000
H    -1.049000000     2.560000000     7.801000000
O    -3.450000000     0.647000000     5.727000000
H    -4.346000000     0.532000000     6.045000000
H    -3.525000000     1.302000000     5.033000000
O    -4.279000000     9.227000000     1.997000000
H    -4.689000000     9.379000000     1.145000000
H    -4.725000000     8.453000000     2.341000000
O     0.564000000     4.773000000     8.832000000
H    -0.258000000     5.040000000     9.243000000
H     0.439000000     3.847000000     8.626000000
O    -0.243000000     5.848000000     4.233000000
H    -0.056000000     5.298000000     4.994000000
H    -0.817000000     5.313000000     3.685000000
O    -3.983000000     5.087000000     4.578000000
H    -4.448000000     4.284000000     4.812000000
H    -3.242000000     4.790000000     4.050000000
O    -3.771000000     6.264000000     6.885000000
H    -3.674000000     5.621000000     6.183000000
H    -4.014000000     7.074000000     6.437000000
O    -8.678000000     2.713000000     3.110000000
H    -8.877000000     2.052000000     2.447000000
H    -7.778000000     2.524000000     3.374000000
O    -6.054000000     2.220000000     3.955000000
H    -6.048000000     1.707000000     4.763000000
H    -5.160000000     2.151000000     3.621000000
O    -1.180000000    -0.841000000     6.312000000
H    -0.394000000    -0.459000000     5.922000000
H    -1.900000000    -0.314000000     5.964000000
O    -5.299000000     4.364000000     8.268000000
H    -4.928000000     4.478000000     9.143000000
H    -4.904000000     5.064000000     7.748000000
O    -5.799000000     1.283000000     6.894000000
H    -5.836000000     0.698000000     7.651000000
H    -5.720000000     2.159000000     7.273000000
O    -5.542000000     7.441000000     3.757000000
H    -5.198000000     8.090000000     4.371000000
H    -4.830000000     6.809000000     3.654000000
