215
-1467.79620
C    -2.332000000     4.722000000    -1.512000000
H    -3.072000000     4.102000000    -2.012000000
C    -1.021000000     4.590000000    -1.836000000
C    -0.071000000     5.287000000    -1.137000000
H     0.980000000     5.024000000    -1.233000000
C    -0.526000000     3.388000000    -2.672000000
O    -1.579000000     3.049000000    -3.592000000
H    -0.316000000     2.618000000    -1.915000000
O     0.704000000     3.747000000    -3.364000000
C     1.687000000     2.766000000    -3.282000000
C     2.606000000     2.715000000    -2.269000000
H     2.660000000     3.468000000    -1.488000000
C     3.516000000     1.639000000    -2.183000000
O     4.449000000     1.628000000    -1.165000000
C     3.520000000     0.614000000    -3.150000000
C     4.507000000    -0.561000000    -3.070000000
H     4.492000000    -0.913000000    -4.104000000
C     4.084000000    -1.612000000    -2.071000000
C     3.314000000    -2.669000000    -2.633000000
H     3.105000000    -2.657000000    -3.700000000
H     5.501000000    -0.163000000    -2.854000000
C     2.657000000     0.649000000    -4.226000000
H     2.680000000    -0.192000000    -4.914000000
C     1.623000000     1.651000000    -4.199000000
C     0.483000000     1.623000000    -5.251000000
H     0.817000000     1.134000000    -6.168000000
H     0.255000000     2.649000000    -5.548000000
C    -0.760000000     0.999000000    -4.641000000
C    -1.017000000    -0.381000000    -4.790000000
H    -0.436000000    -0.964000000    -5.499000000
C    -1.679000000     1.743000000    -3.903000000
C    -2.727000000     1.072000000    -3.232000000
H    -3.385000000     1.656000000    -2.594000000
C    -2.976000000    -0.319000000    -3.352000000
O    -4.000000000    -0.870000000    -2.670000000
C    -3.754000000    -1.724000000    -1.606000000
C    -4.663000000    -1.283000000    -0.445000000
C    -4.929000000    -2.249000000     0.561000000
H    -4.493000000    -3.245000000     0.591000000
C    -5.014000000     0.054000000    -0.267000000
H    -4.717000000     0.822000000    -0.977000000
O    -3.740000000    -3.118000000    -2.073000000
H    -2.777000000    -1.412000000    -1.208000000
C    -2.148000000    -1.019000000    -4.188000000
C    -2.379000000    -2.496000000    -4.536000000
H    -1.925000000    -2.808000000    -5.479000000
H    -3.458000000    -2.665000000    -4.560000000
C    -1.778000000    -3.315000000    -3.326000000
C    -0.423000000    -3.646000000    -3.376000000
H     0.246000000    -3.454000000    -4.211000000
C    -2.565000000    -3.708000000    -2.220000000
C    -2.020000000    -4.345000000    -1.098000000
H    -2.635000000    -4.503000000    -0.216000000
C    -0.621000000    -4.624000000    -1.122000000
O    -0.013000000    -5.044000000     0.049000000
C     0.849000000    -4.084000000     0.720000000
C     0.668000000    -4.060000000     2.257000000
C    -0.586000000    -4.498000000     2.736000000
H    -1.412000000    -4.850000000     2.122000000
C     1.652000000    -3.560000000     3.113000000
H     2.555000000    -3.192000000     2.633000000
O     2.244000000    -4.417000000     0.447000000
H     0.698000000    -3.071000000     0.317000000
C     0.211000000    -4.337000000    -2.228000000
C     1.673000000    -4.645000000    -2.360000000
H     1.855000000    -4.716000000    -3.434000000
H     1.816000000    -5.610000000    -1.869000000
C     2.641000000    -3.587000000    -1.771000000
C     2.852000000    -3.544000000    -0.397000000
C     3.700000000    -2.568000000     0.102000000
H     3.983000000    -2.624000000     1.150000000
C     4.244000000    -1.567000000    -0.694000000
O     4.860000000    -0.442000000    -0.106000000
C     4.160000000     0.792000000    -0.009000000
H     3.084000000     0.564000000    -0.007000000
C     4.386000000     1.472000000     1.320000000
C     4.185000000     2.849000000     1.473000000
H     3.771000000     3.403000000     0.635000000
C     4.819000000     0.750000000     2.434000000
H     4.985000000    -0.322000000     2.368000000
C     4.956000000     1.417000000     3.663000000
O     5.416000000     0.641000000     4.721000000
C     4.737000000     2.735000000     3.791000000
H     4.876000000     3.216000000     4.756000000
C     4.349000000     3.482000000     2.740000000
O     3.970000000     4.821000000     2.882000000
C     3.589000000     5.656000000     1.854000000
C     2.257000000     5.934000000     1.578000000
H     1.418000000     5.404000000     2.020000000
C     4.571000000     6.248000000     1.071000000
H     5.624000000     6.015000000     1.207000000
C     4.207000000     7.121000000     0.033000000
H     4.820000000     7.586000000    -0.734000000
C     2.843000000     7.387000000    -0.285000000
H     2.495000000     8.151000000    -0.976000000
C     1.871000000     6.827000000     0.548000000
O     0.541000000     7.021000000     0.333000000
C    -0.435000000     6.317000000    -0.333000000
C    -1.793000000     6.619000000    -0.135000000
H    -2.044000000     7.440000000     0.532000000
C    -2.739000000     5.716000000    -0.618000000
O    -4.051000000     5.917000000    -0.314000000
C    -4.992000000     4.843000000    -0.414000000
C    -5.095000000     3.859000000     0.554000000
H    -4.542000000     3.978000000     1.483000000
C    -5.915000000     4.889000000    -1.463000000
H    -5.838000000     5.747000000    -2.127000000
C    -6.730000000     3.806000000    -1.747000000
H    -7.470000000     3.887000000    -2.538000000
C    -6.682000000     2.714000000    -0.832000000
H    -7.326000000     1.867000000    -1.053000000
C    -5.933000000     2.754000000     0.356000000
O    -5.952000000     1.729000000     1.248000000
C    -5.655000000     0.428000000     0.906000000
C    -5.972000000    -0.535000000     1.863000000
H    -6.443000000    -0.191000000     2.780000000
C    -5.702000000    -1.878000000     1.617000000
O    -5.948000000    -2.735000000     2.738000000
C    -5.169000000    -3.845000000     2.942000000
C    -3.947000000    -3.741000000     3.611000000
H    -3.632000000    -2.763000000     3.965000000
C    -5.541000000    -5.061000000     2.429000000
H    -6.464000000    -5.169000000     1.866000000
C    -4.854000000    -6.277000000     2.842000000
H    -5.162000000    -7.287000000     2.583000000
C    -3.787000000    -6.144000000     3.712000000
H    -3.318000000    -7.055000000     4.074000000
C    -3.243000000    -4.839000000     3.970000000
O    -2.022000000    -4.835000000     4.633000000
C    -0.798000000    -4.438000000     4.105000000
C     0.227000000    -4.024000000     4.976000000
H     0.074000000    -4.044000000     6.052000000
C     1.471000000    -3.607000000     4.509000000
O     2.347000000    -3.144000000     5.370000000
C     3.590000000    -2.571000000     4.976000000
C     4.661000000    -3.434000000     4.709000000
H     4.409000000    -4.466000000     4.481000000
C     5.987000000    -2.876000000     4.616000000
H     6.749000000    -3.618000000     4.389000000
C     6.228000000    -1.545000000     4.756000000
H     7.223000000    -1.112000000     4.680000000
C     5.164000000    -0.697000000     4.824000000
C     3.817000000    -1.209000000     5.057000000
H     2.939000000    -0.571000000     5.113000000
C    -1.944000000    -0.097000000     1.871000000
H    -2.855000000    -0.483000000     2.322000000
C    -1.182000000    -0.924000000     1.032000000
H    -1.392000000    -1.976000000     0.854000000
C    -0.059000000    -0.386000000     0.416000000
H     0.629000000    -1.004000000    -0.153000000
C     0.246000000     0.958000000     0.526000000
H     0.984000000     1.379000000    -0.153000000
C    -0.481000000     1.768000000     1.389000000
H    -0.242000000     2.825000000     1.482000000
C    -1.581000000     1.256000000     2.095000000
C    -2.431000000     2.131000000     2.980000000
O    -2.176000000     3.287000000     3.126000000
O    -3.436000000     1.658000000     3.446000000
O    -1.477000000     0.439000000     8.512000000
H    -1.189000000     1.220000000     8.987000000
H    -1.106000000     0.542000000     7.636000000
O    -0.819000000     6.949000000     4.141000000
H    -0.360000000     6.124000000     4.299000000
H    -1.479000000     6.733000000     3.483000000
O     2.374000000     3.140000000     6.830000000
H     1.650000000     2.727000000     6.359000000
H     2.711000000     2.451000000     7.403000000
O     2.590000000     5.646000000     5.691000000
H     2.191000000     4.872000000     6.088000000
H     2.920000000     5.340000000     4.846000000
O     0.828000000    -0.337000000     3.534000000
H     0.815000000    -0.154000000     2.595000000
H     0.751000000     0.523000000     3.948000000
O    -7.904000000     6.444000000     2.076000000
H    -6.975000000     6.251000000     2.202000000
H    -8.198000000     5.797000000     1.434000000
O    -2.515000000     2.952000000     5.856000000
H    -3.401000000     2.711000000     6.126000000
H    -2.571000000     3.041000000     4.904000000
O     0.274000000     1.729000000     5.324000000
H     0.230000000     0.837000000     5.670000000
H    -0.614000000     2.071000000     5.432000000
O    -5.820000000    -0.644000000     6.309000000
H    -6.255000000    -0.775000000     5.467000000
H    -6.531000000    -0.446000000     6.918000000
O    -3.156000000    -0.427000000     5.292000000
H    -3.941000000    -0.404000000     5.840000000
H    -3.267000000     0.303000000     4.684000000
O     0.196000000     4.160000000     3.795000000
H     0.528000000     3.312000000     4.089000000
H    -0.743000000     4.020000000     3.671000000
O    -4.169000000     4.962000000     3.795000000
H    -4.728000000     4.225000000     4.042000000
H    -3.412000000     4.557000000     3.372000000
O    -3.183000000     5.794000000     6.356000000
H    -2.788000000     4.990000000     6.695000000
H    -3.685000000     5.510000000     5.591000000
O    -8.205000000     2.912000000     2.538000000
H    -8.542000000     2.062000000     2.257000000
H    -7.277000000     2.755000000     2.716000000
O    -5.736000000     2.166000000     4.408000000
H    -5.389000000     2.457000000     5.251000000
H    -4.962000000     1.907000000     3.907000000
O    -0.062000000    -0.946000000     6.142000000
H     0.183000000    -1.317000000     5.294000000
H    -1.018000000    -0.984000000     6.153000000
O    -8.396000000     1.757000000     5.968000000
H    -8.478000000     2.630000000     6.352000000
H    -7.706000000     1.849000000     5.310000000
O    -5.036000000     2.748000000     6.920000000
H    -5.804000000     2.211000000     7.117000000
H    -4.997000000     3.381000000     7.636000000
O    -5.329000000     7.095000000     2.548000000
H    -5.321000000     7.905000000     3.059000000
H    -4.857000000     6.464000000     3.092000000
