215
-1445.31162
C    -1.956000000     4.201000000    -1.714000000
H    -2.659000000     3.414000000    -1.976000000
C    -0.601000000     4.052000000    -2.103000000
C     0.320000000     5.093000000    -1.714000000
H     1.360000000     4.935000000    -1.990000000
C    -0.107000000     2.791000000    -2.896000000
O    -1.102000000     2.484000000    -3.944000000
H    -0.094000000     1.942000000    -2.197000000
O     1.187000000     2.977000000    -3.538000000
C     2.065000000     1.925000000    -3.640000000
C     3.188000000     1.919000000    -2.779000000
H     3.403000000     2.829000000    -2.225000000
C     4.013000000     0.770000000    -2.605000000
O     4.890000000     0.747000000    -1.557000000
C     3.694000000    -0.383000000    -3.317000000
C     4.457000000    -1.710000000    -3.153000000
H     4.421000000    -2.190000000    -4.133000000
C     3.856000000    -2.564000000    -1.980000000
C     3.018000000    -3.704000000    -2.264000000
H     2.820000000    -3.879000000    -3.319000000
H     5.501000000    -1.521000000    -2.895000000
C     2.659000000    -0.347000000    -4.292000000
H     2.426000000    -1.242000000    -4.863000000
C     1.825000000     0.763000000    -4.428000000
C     0.678000000     0.701000000    -5.393000000
H     0.976000000     0.051000000    -6.218000000
H     0.469000000     1.647000000    -5.898000000
C    -0.588000000     0.244000000    -4.765000000
C    -1.005000000    -1.074000000    -4.849000000
H    -0.469000000    -1.811000000    -5.442000000
C    -1.455000000     1.176000000    -4.150000000
C    -2.691000000     0.657000000    -3.601000000
H    -3.351000000     1.305000000    -3.029000000
C    -2.987000000    -0.640000000    -3.639000000
O    -4.056000000    -1.150000000    -2.971000000
C    -3.781000000    -1.440000000    -1.604000000
C    -4.896000000    -0.929000000    -0.742000000
C    -5.111000000    -1.403000000     0.586000000
H    -4.444000000    -2.169000000     0.973000000
C    -5.482000000     0.324000000    -1.029000000
H    -5.248000000     0.872000000    -1.938000000
O    -3.832000000    -2.849000000    -1.404000000
H    -2.854000000    -1.063000000    -1.148000000
C    -2.121000000    -1.504000000    -4.223000000
C    -2.399000000    -3.064000000    -4.044000000
H    -2.033000000    -3.608000000    -4.917000000
H    -3.477000000    -3.226000000    -4.108000000
C    -1.912000000    -3.636000000    -2.706000000
C    -0.689000000    -4.309000000    -2.714000000
H    -0.159000000    -4.531000000    -3.637000000
C    -2.642000000    -3.526000000    -1.517000000
C    -2.087000000    -3.974000000    -0.292000000
H    -2.732000000    -3.856000000     0.574000000
C    -0.826000000    -4.536000000    -0.246000000
O    -0.183000000    -4.838000000     0.962000000
C     0.800000000    -3.883000000     1.427000000
C     0.592000000    -3.395000000     2.856000000
C    -0.741000000    -3.272000000     3.283000000
H    -1.567000000    -3.511000000     2.619000000
C     1.712000000    -3.104000000     3.702000000
H     2.733000000    -3.131000000     3.328000000
O     2.111000000    -4.432000000     1.239000000
H     0.757000000    -2.912000000     0.913000000
C    -0.147000000    -4.753000000    -1.466000000
C     1.244000000    -5.361000000    -1.434000000
H     1.344000000    -5.706000000    -2.465000000
H     1.291000000    -6.136000000    -0.666000000
C     2.368000000    -4.341000000    -1.161000000
C     2.759000000    -4.014000000     0.173000000
C     3.622000000    -2.937000000     0.353000000
H     3.879000000    -2.681000000     1.378000000
C     4.222000000    -2.280000000    -0.704000000
O     4.946000000    -1.222000000    -0.337000000
C     4.414000000     0.140000000    -0.386000000
H     3.325000000     0.067000000    -0.517000000
C     4.683000000     0.972000000     0.836000000
C     4.226000000     2.338000000     0.898000000
H     3.912000000     2.807000000    -0.031000000
C     5.163000000     0.345000000     1.989000000
H     5.476000000    -0.695000000     1.938000000
C     5.139000000     1.025000000     3.178000000
O     5.691000000     0.536000000     4.298000000
C     4.618000000     2.327000000     3.247000000
H     4.651000000     2.809000000     4.221000000
C     4.105000000     3.007000000     2.126000000
O     3.598000000     4.247000000     2.180000000
C     3.476000000     5.177000000     1.180000000
C     2.202000000     5.611000000     0.826000000
H     1.335000000     5.098000000     1.234000000
C     4.611000000     5.772000000     0.617000000
H     5.608000000     5.420000000     0.870000000
C     4.453000000     6.899000000    -0.171000000
H     5.273000000     7.576000000    -0.394000000
C     3.145000000     7.292000000    -0.505000000
H     2.937000000     8.142000000    -1.150000000
C     2.054000000     6.636000000    -0.060000000
O     0.799000000     7.095000000    -0.365000000
C    -0.100000000     6.172000000    -0.947000000
C    -1.394000000     6.267000000    -0.517000000
H    -1.672000000     7.192000000    -0.018000000
C    -2.350000000     5.252000000    -0.897000000
O    -3.580000000     5.367000000    -0.265000000
C    -4.711000000     4.827000000    -0.826000000
C    -5.327000000     3.633000000    -0.390000000
H    -4.804000000     3.007000000     0.329000000
C    -5.390000000     5.540000000    -1.783000000
H    -4.906000000     6.397000000    -2.243000000
C    -6.612000000     5.102000000    -2.272000000
H    -7.168000000     5.648000000    -3.030000000
C    -7.178000000     3.970000000    -1.823000000
H    -8.167000000     3.685000000    -2.170000000
C    -6.530000000     3.189000000    -0.863000000
O    -7.125000000     2.064000000    -0.459000000
C    -6.442000000     0.858000000    -0.125000000
C    -6.727000000     0.288000000     1.091000000
H    -7.467000000     0.665000000     1.793000000
C    -5.951000000    -0.802000000     1.413000000
O    -6.022000000    -1.175000000     2.717000000
C    -5.347000000    -2.207000000     3.214000000
C    -4.158000000    -2.057000000     3.915000000
H    -3.824000000    -1.025000000     3.986000000
C    -5.698000000    -3.570000000     2.994000000
H    -6.607000000    -3.833000000     2.459000000
C    -5.025000000    -4.696000000     3.417000000
H    -5.404000000    -5.677000000     3.141000000
C    -3.804000000    -4.467000000     4.057000000
H    -3.174000000    -5.237000000     4.493000000
C    -3.368000000    -3.167000000     4.305000000
O    -2.247000000    -2.956000000     5.085000000
C    -0.967000000    -2.934000000     4.611000000
C     0.107000000    -2.728000000     5.465000000
H    -0.154000000    -2.500000000     6.496000000
C     1.416000000    -2.636000000     4.939000000
O     2.359000000    -2.412000000     5.874000000
C     3.693000000    -2.166000000     5.559000000
C     4.637000000    -2.895000000     6.287000000
H     4.294000000    -3.754000000     6.858000000
C     5.947000000    -2.666000000     6.163000000
H     6.697000000    -3.289000000     6.644000000
C     6.337000000    -1.553000000     5.383000000
H     7.367000000    -1.220000000     5.292000000
C     5.380000000    -0.747000000     4.736000000
C     4.006000000    -1.027000000     4.861000000
H     3.138000000    -0.443000000     4.566000000
C    -1.730000000     0.318000000     1.620000000
H    -2.337000000    -0.378000000     2.192000000
C    -0.633000000    -0.168000000     0.830000000
H    -0.611000000    -1.229000000     0.597000000
C     0.301000000     0.711000000     0.336000000
H     1.177000000     0.286000000    -0.245000000
C     0.143000000     2.092000000     0.631000000
H     0.864000000     2.817000000     0.264000000
C    -1.014000000     2.564000000     1.318000000
H    -1.030000000     3.614000000     1.599000000
C    -1.912000000     1.684000000     1.962000000
C    -2.961000000     2.157000000     2.900000000
O    -3.375000000     3.267000000     2.946000000
O    -3.438000000     1.386000000     3.702000000
O    -2.781000000     8.575000000     2.104000000
H    -2.484000000     8.183000000     2.925000000
H    -3.602000000     9.013000000     2.331000000
O    -5.832000000    -2.254000000     6.515000000
H    -5.719000000    -1.598000000     7.203000000
H    -4.940000000    -2.472000000     6.244000000
O     1.232000000     2.545000000     5.366000000
H     0.978000000     3.460000000     5.244000000
H     0.480000000     2.144000000     5.804000000
O    -2.682000000     5.726000000     6.465000000
H    -2.119000000     5.546000000     7.218000000
H    -2.285000000     6.490000000     6.047000000
O    -6.595000000     7.305000000     1.043000000
H    -5.764000000     6.889000000     1.274000000
H    -7.224000000     6.948000000     1.669000000
O    -1.717000000     2.736000000     5.483000000
H    -2.231000000     2.916000000     6.270000000
H    -2.340000000     2.334000000     4.877000000
O    -1.576000000    -0.067000000     7.708000000
H    -2.353000000     0.156000000     7.195000000
H    -0.845000000     0.294000000     7.206000000
O    -0.141000000     4.722000000     4.871000000
H    -0.836000000     4.090000000     5.052000000
H    -0.490000000     5.265000000     4.164000000
O    -5.033000000     5.517000000     3.135000000
H    -4.447000000     4.801000000     3.380000000
H    -5.809000000     5.081000000     2.782000000
O    -3.867000000     0.634000000     6.273000000
H    -3.968000000     1.486000000     6.697000000
H    -3.777000000     0.839000000     5.343000000
O     0.821000000     6.917000000     5.990000000
H     1.135000000     7.402000000     5.226000000
H     0.494000000     6.092000000     5.632000000
O    -6.207000000     2.365000000     4.329000000
H    -5.266000000     2.465000000     4.185000000
H    -6.330000000     1.425000000     4.464000000
O    -7.171000000     3.932000000     6.237000000
H    -8.089000000     3.685000000     6.347000000
H    -6.816000000     3.274000000     5.639000000
O    -8.510000000     6.265000000     2.775000000
H    -7.943000000     5.495000000     2.823000000
H    -8.305000000     6.762000000     3.567000000
O    -7.051000000     3.876000000     2.219000000
H    -6.785000000     3.330000000     2.959000000
H    -6.904000000     3.326000000     1.450000000
O    -0.202000000     7.555000000     2.825000000
H    -0.963000000     6.976000000     2.783000000
H    -0.345000000     8.189000000     2.122000000
O    -3.728000000     2.992000000     7.814000000
H    -3.959000000     2.930000000     8.741000000
H    -3.851000000     3.916000000     7.597000000
O    -2.153000000     5.745000000     3.430000000
H    -2.773000000     5.223000000     2.922000000
H    -2.261000000     5.437000000     4.330000000
O    -5.194000000     7.178000000     5.264000000
H    -4.614000000     6.566000000     5.718000000
H    -5.122000000     6.935000000     4.341000000
