215
-1503.84231
C    -1.438000000     3.837000000    -1.541000000
H    -2.191000000     3.133000000    -1.886000000
C    -0.160000000     3.907000000    -2.141000000
C     0.781000000     4.830000000    -1.687000000
H     1.766000000     4.687000000    -2.126000000
C     0.258000000     2.794000000    -3.144000000
O    -0.753000000     2.572000000    -4.197000000
H     0.352000000     1.870000000    -2.553000000
O     1.522000000     3.100000000    -3.832000000
C     2.378000000     1.965000000    -3.655000000
C     3.408000000     2.049000000    -2.724000000
H     3.588000000     2.952000000    -2.145000000
C     4.058000000     0.851000000    -2.347000000
O     4.834000000     0.924000000    -1.253000000
C     3.844000000    -0.332000000    -3.035000000
C     4.591000000    -1.634000000    -2.787000000
H     4.591000000    -2.155000000    -3.747000000
C     3.936000000    -2.395000000    -1.690000000
C     2.911000000    -3.318000000    -1.987000000
H     2.731000000    -3.574000000    -3.028000000
H     5.630000000    -1.373000000    -2.573000000
C     2.813000000    -0.373000000    -4.029000000
H     2.542000000    -1.288000000    -4.549000000
C     2.132000000     0.804000000    -4.362000000
C     1.057000000     0.697000000    -5.394000000
H     1.336000000    -0.001000000    -6.186000000
H     0.847000000     1.577000000    -6.005000000
C    -0.276000000     0.304000000    -4.884000000
C    -0.742000000    -1.026000000    -5.018000000
H     0.013000000    -1.708000000    -5.402000000
C    -1.200000000     1.271000000    -4.446000000
C    -2.458000000     0.898000000    -3.999000000
H    -3.143000000     1.590000000    -3.517000000
C    -2.811000000    -0.481000000    -3.903000000
O    -4.032000000    -0.753000000    -3.316000000
C    -4.010000000    -1.315000000    -1.983000000
C    -5.232000000    -0.809000000    -1.191000000
C    -5.627000000    -1.532000000    -0.053000000
H    -5.113000000    -2.459000000     0.189000000
C    -5.815000000     0.477000000    -1.397000000
H    -5.388000000     0.999000000    -2.250000000
O    -3.951000000    -2.779000000    -1.932000000
H    -3.094000000    -0.958000000    -1.487000000
C    -1.977000000    -1.447000000    -4.445000000
C    -2.252000000    -2.930000000    -4.237000000
H    -1.749000000    -3.535000000    -4.994000000
H    -3.315000000    -3.021000000    -4.471000000
C    -1.843000000    -3.449000000    -2.902000000
C    -0.558000000    -3.983000000    -2.757000000
H     0.165000000    -3.976000000    -3.568000000
C    -2.708000000    -3.413000000    -1.805000000
C    -2.282000000    -3.917000000    -0.544000000
H    -2.926000000    -3.697000000     0.304000000
C    -0.936000000    -4.295000000    -0.372000000
O    -0.456000000    -4.469000000     0.902000000
C     0.370000000    -3.448000000     1.436000000
C    -0.076000000    -3.100000000     2.880000000
C    -1.360000000    -3.421000000     3.344000000
H    -2.056000000    -4.004000000     2.746000000
C     0.809000000    -2.514000000     3.747000000
H     1.815000000    -2.278000000     3.410000000
O     1.687000000    -3.982000000     1.438000000
H     0.383000000    -2.510000000     0.863000000
C    -0.156000000    -4.467000000    -1.489000000
C     1.217000000    -5.015000000    -1.327000000
H     1.626000000    -5.494000000    -2.220000000
H     1.182000000    -5.891000000    -0.675000000
C     2.204000000    -3.890000000    -0.957000000
C     2.518000000    -3.592000000     0.398000000
C     3.452000000    -2.612000000     0.656000000
H     3.599000000    -2.311000000     1.690000000
C     4.183000000    -2.034000000    -0.353000000
O     5.063000000    -1.040000000    -0.075000000
C     4.463000000     0.225000000    -0.035000000
H     3.374000000     0.109000000     0.064000000
C     4.868000000     0.945000000     1.218000000
C     4.658000000     2.329000000     1.323000000
H     4.420000000     2.916000000     0.440000000
C     5.197000000     0.288000000     2.409000000
H     5.250000000    -0.794000000     2.501000000
C     5.387000000     0.975000000     3.614000000
O     5.642000000     0.314000000     4.793000000
C     5.144000000     2.318000000     3.691000000
H     5.319000000     2.899000000     4.594000000
C     4.792000000     3.014000000     2.536000000
O     4.706000000     4.408000000     2.538000000
C     4.374000000     5.140000000     1.352000000
C     3.051000000     5.324000000     1.087000000
H     2.332000000     4.806000000     1.717000000
C     5.363000000     5.755000000     0.601000000
H     6.417000000     5.677000000     0.855000000
C     5.100000000     6.681000000    -0.385000000
H     5.892000000     7.240000000    -0.875000000
C     3.769000000     6.918000000    -0.711000000
H     3.494000000     7.676000000    -1.439000000
C     2.711000000     6.262000000     0.050000000
O     1.359000000     6.625000000    -0.139000000
C     0.453000000     5.783000000    -0.720000000
C    -0.794000000     5.772000000    -0.201000000
H    -1.119000000     6.554000000     0.480000000
C    -1.753000000     4.797000000    -0.615000000
O    -3.045000000     4.785000000    -0.025000000
C    -4.177000000     4.454000000    -0.785000000
C    -5.109000000     3.568000000    -0.291000000
H    -5.024000000     3.175000000     0.719000000
C    -4.350000000     5.020000000    -2.089000000
H    -3.584000000     5.710000000    -2.432000000
C    -5.365000000     4.496000000    -2.894000000
H    -5.459000000     4.801000000    -3.933000000
C    -6.318000000     3.627000000    -2.388000000
H    -7.176000000     3.393000000    -3.013000000
C    -6.244000000     3.255000000    -1.042000000
O    -7.182000000     2.274000000    -0.499000000
C    -6.737000000     0.961000000    -0.457000000
C    -6.982000000     0.239000000     0.748000000
H    -7.588000000     0.573000000     1.587000000
C    -6.448000000    -1.028000000     0.939000000
O    -6.788000000    -1.666000000     2.180000000
C    -5.940000000    -2.598000000     2.798000000
C    -4.855000000    -2.311000000     3.544000000
H    -4.502000000    -1.287000000     3.628000000
C    -6.412000000    -3.914000000     2.718000000
H    -7.339000000    -4.123000000     2.190000000
C    -5.685000000    -4.970000000     3.355000000
H    -6.005000000    -6.004000000     3.263000000
C    -4.538000000    -4.699000000     4.092000000
H    -3.980000000    -5.398000000     4.710000000
C    -4.178000000    -3.388000000     4.236000000
O    -3.092000000    -3.058000000     5.027000000
C    -1.824000000    -2.972000000     4.590000000
C    -0.945000000    -2.331000000     5.495000000
H    -1.281000000    -2.141000000     6.511000000
C     0.352000000    -2.151000000     5.066000000
O     1.294000000    -1.590000000     5.896000000
C     2.751000000    -1.698000000     5.821000000
C     3.393000000    -2.810000000     6.229000000
H     2.744000000    -3.641000000     6.493000000
C     4.774000000    -2.947000000     6.151000000
H     5.251000000    -3.869000000     6.472000000
C     5.547000000    -1.879000000     5.738000000
H     6.629000000    -1.923000000     5.655000000
C     4.899000000    -0.729000000     5.285000000
C     3.501000000    -0.578000000     5.388000000
H     3.017000000     0.366000000     5.148000000
C    -1.491000000     0.052000000     1.400000000
H    -2.217000000    -0.502000000     1.989000000
C    -1.013000000    -0.554000000     0.245000000
H    -1.358000000    -1.498000000    -0.169000000
C    -0.047000000     0.110000000    -0.490000000
H     0.470000000    -0.444000000    -1.263000000
C     0.410000000     1.408000000    -0.143000000
H     1.170000000     1.903000000    -0.742000000
C    -0.156000000     2.005000000     0.991000000
H     0.182000000     2.999000000     1.274000000
C    -1.091000000     1.366000000     1.770000000
C    -1.679000000     1.999000000     2.966000000
O    -1.109000000     2.998000000     3.521000000
O    -2.741000000     1.603000000     3.441000000
O     0.267000000     3.934000000     7.955000000
H    -0.410000000     4.548000000     8.240000000
H    -0.148000000     3.428000000     7.256000000
O     2.127000000    -0.074000000     2.499000000
H     2.085000000     0.720000000     3.033000000
H     1.664000000     0.155000000     1.693000000
O     1.497000000     2.257000000     3.999000000
H     0.596000000     2.211000000     3.679000000
H     1.616000000     3.173000000     4.249000000
O    -3.827000000     0.862000000     5.717000000
H    -3.301000000     0.987000000     4.927000000
H    -4.064000000     1.748000000     5.989000000
O    -5.348000000    -1.113000000     7.235000000
H    -4.719000000    -0.605000000     6.722000000
H    -5.818000000    -0.459000000     7.752000000
O    -5.809000000     6.528000000     5.925000000
H    -6.594000000     6.566000000     6.472000000
H    -6.004000000     5.855000000     5.273000000
O     0.872000000     5.092000000     4.005000000
H     0.602000000     5.934000000     3.638000000
H     0.201000000     4.476000000     3.710000000
O    -3.204000000     4.865000000     3.341000000
H    -2.706000000     5.588000000     3.723000000
H    -2.601000000     4.122000000     3.360000000
O    -1.550000000     3.059000000     6.128000000
H    -2.476000000     3.279000000     6.027000000
H    -1.243000000     2.899000000     5.236000000
O    -4.643000000     7.659000000     2.255000000
H    -4.176000000     6.846000000     2.447000000
H    -3.972000000     8.340000000     2.306000000
O     2.555000000     6.049000000     6.464000000
H     2.238000000     5.774000000     7.324000000
H     2.144000000     5.441000000     5.851000000
O    -5.360000000     1.593000000     3.392000000
H    -4.417000000     1.651000000     3.242000000
H    -5.479000000     0.763000000     3.854000000
O    -1.849000000     0.738000000     8.170000000
H    -2.061000000     1.668000000     8.092000000
H    -1.651000000     0.461000000     7.275000000
O    -7.953000000     2.618000000     3.162000000
H    -8.551000000     2.267000000     3.822000000
H    -7.105000000     2.231000000     3.378000000
O    -3.025000000     6.822000000     6.630000000
H    -2.704000000     5.954000000     6.877000000
H    -3.953000000     6.687000000     6.438000000
O    -3.531000000     3.863000000     8.196000000
H    -4.301000000     3.850000000     7.627000000
H    -3.711000000     3.193000000     8.856000000
O    -1.831000000     6.979000000     4.304000000
H    -1.717000000     7.850000000     3.924000000
H    -1.966000000     7.141000000     5.238000000
O    -5.789000000     4.803000000     3.773000000
H    -6.211000000     4.230000000     3.133000000
H    -4.852000000     4.713000000     3.595000000
O    -5.208000000     3.457000000     5.939000000
H    -6.132000000     3.504000000     6.184000000
H    -5.139000000     4.009000000     5.159000000
