215
-1474.04283
C    -1.739000000     4.317000000    -2.545000000
H    -2.579000000     3.799000000    -3.001000000
C    -0.431000000     3.921000000    -2.669000000
C     0.555000000     4.716000000    -2.086000000
H     1.600000000     4.506000000    -2.301000000
C    -0.005000000     2.699000000    -3.452000000
O    -0.940000000     2.358000000    -4.561000000
H    -0.146000000     1.889000000    -2.721000000
O     1.347000000     2.719000000    -3.969000000
C     2.123000000     1.636000000    -3.689000000
C     2.971000000     1.720000000    -2.598000000
H     3.144000000     2.596000000    -1.978000000
C     3.792000000     0.629000000    -2.270000000
O     4.619000000     0.684000000    -1.129000000
C     3.733000000    -0.538000000    -3.053000000
C     4.652000000    -1.688000000    -2.788000000
H     4.703000000    -2.257000000    -3.719000000
C     4.022000000    -2.623000000    -1.674000000
C     3.112000000    -3.617000000    -2.051000000
H     2.908000000    -3.902000000    -3.080000000
H     5.598000000    -1.236000000    -2.480000000
C     2.828000000    -0.617000000    -4.089000000
H     2.710000000    -1.521000000    -4.680000000
C     2.012000000     0.466000000    -4.448000000
C     0.981000000     0.347000000    -5.553000000
H     1.334000000    -0.473000000    -6.181000000
H     0.911000000     1.203000000    -6.228000000
C    -0.342000000     0.046000000    -4.979000000
C    -0.756000000    -1.241000000    -4.790000000
H    -0.038000000    -1.946000000    -5.201000000
C    -1.275000000     1.038000000    -4.641000000
C    -2.425000000     0.760000000    -3.954000000
H    -3.086000000     1.495000000    -3.502000000
C    -2.792000000    -0.532000000    -3.720000000
O    -3.836000000    -0.760000000    -2.888000000
C    -3.649000000    -1.164000000    -1.539000000
C    -4.710000000    -0.568000000    -0.701000000
C    -5.081000000    -1.093000000     0.534000000
H    -4.639000000    -2.040000000     0.834000000
C    -5.325000000     0.629000000    -1.050000000
H    -5.034000000     1.204000000    -1.926000000
O    -3.729000000    -2.615000000    -1.562000000
H    -2.651000000    -0.825000000    -1.226000000
C    -1.945000000    -1.506000000    -4.180000000
C    -2.307000000    -3.040000000    -4.005000000
H    -1.869000000    -3.679000000    -4.775000000
H    -3.384000000    -3.157000000    -4.140000000
C    -1.732000000    -3.445000000    -2.659000000
C    -0.540000000    -4.156000000    -2.594000000
H     0.015000000    -4.373000000    -3.503000000
C    -2.528000000    -3.281000000    -1.489000000
C    -2.048000000    -3.711000000    -0.306000000
H    -2.534000000    -3.413000000     0.620000000
C    -0.782000000    -4.361000000    -0.249000000
O    -0.334000000    -4.606000000     1.040000000
C     0.699000000    -3.704000000     1.474000000
C     0.381000000    -3.185000000     2.924000000
C    -0.893000000    -2.714000000     3.205000000
H    -1.569000000    -2.550000000     2.370000000
C     1.379000000    -3.261000000     3.908000000
H     2.387000000    -3.648000000     3.773000000
O     1.915000000    -4.407000000     1.303000000
H     0.674000000    -2.884000000     0.742000000
C    -0.037000000    -4.584000000    -1.400000000
C     1.285000000    -5.309000000    -1.364000000
H     1.460000000    -5.781000000    -2.334000000
H     1.272000000    -6.086000000    -0.597000000
C     2.435000000    -4.315000000    -1.026000000
C     2.755000000    -4.065000000     0.354000000
C     3.680000000    -3.077000000     0.658000000
H     3.852000000    -2.743000000     1.678000000
C     4.333000000    -2.381000000    -0.341000000
O     5.043000000    -1.338000000     0.011000000
C     4.225000000    -0.131000000     0.063000000
H     3.167000000    -0.416000000    -0.035000000
C     4.367000000     0.711000000     1.313000000
C     3.862000000     1.999000000     1.328000000
H     3.335000000     2.408000000     0.469000000
C     4.808000000     0.106000000     2.543000000
H     5.221000000    -0.898000000     2.606000000
C     4.797000000     0.909000000     3.725000000
O     5.386000000     0.396000000     4.858000000
C     4.461000000     2.280000000     3.701000000
H     4.501000000     2.907000000     4.588000000
C     3.864000000     2.748000000     2.510000000
O     3.433000000     4.030000000     2.473000000
C     3.537000000     4.843000000     1.379000000
C     2.374000000     5.368000000     0.896000000
H     1.381000000     5.077000000     1.230000000
C     4.763000000     5.299000000     0.910000000
H     5.691000000     5.060000000     1.425000000
C     4.744000000     6.006000000    -0.233000000
H     5.685000000     6.135000000    -0.762000000
C     3.574000000     6.527000000    -0.788000000
H     3.617000000     7.104000000    -1.708000000
C     2.364000000     6.262000000    -0.167000000
O     1.203000000     6.699000000    -0.806000000
C     0.240000000     5.829000000    -1.292000000
C    -1.111000000     6.154000000    -1.113000000
H    -1.407000000     7.059000000    -0.589000000
C    -2.106000000     5.370000000    -1.661000000
O    -3.410000000     5.779000000    -1.495000000
C    -4.548000000     5.063000000    -1.913000000
C    -5.012000000     4.010000000    -1.135000000
H    -4.455000000     3.621000000    -0.287000000
C    -5.302000000     5.520000000    -3.012000000
H    -4.918000000     6.347000000    -3.604000000
C    -6.522000000     4.947000000    -3.315000000
H    -7.085000000     5.270000000    -4.187000000
C    -6.990000000     3.853000000    -2.528000000
H    -7.919000000     3.427000000    -2.898000000
C    -6.209000000     3.415000000    -1.464000000
O    -6.860000000     2.544000000    -0.577000000
C    -6.253000000     1.302000000    -0.228000000
C    -6.711000000     0.678000000     0.929000000
H    -7.356000000     1.119000000     1.685000000
C    -6.154000000    -0.567000000     1.305000000
O    -6.605000000    -1.226000000     2.465000000
C    -5.705000000    -2.069000000     3.160000000
C    -4.485000000    -1.597000000     3.565000000
H    -4.172000000    -0.582000000     3.332000000
C    -6.143000000    -3.316000000     3.612000000
H    -7.133000000    -3.674000000     3.342000000
C    -5.313000000    -4.129000000     4.428000000
H    -5.620000000    -5.099000000     4.811000000
C    -4.099000000    -3.621000000     4.830000000
H    -3.516000000    -4.220000000     5.526000000
C    -3.681000000    -2.342000000     4.417000000
O    -2.440000000    -1.788000000     4.803000000
C    -1.249000000    -2.352000000     4.514000000
C    -0.269000000    -2.414000000     5.477000000
H    -0.505000000    -2.003000000     6.455000000
C     1.041000000    -2.782000000     5.226000000
O     1.984000000    -2.712000000     6.142000000
C     3.297000000    -2.427000000     5.904000000
C     4.285000000    -3.224000000     6.376000000
H     3.964000000    -4.170000000     6.806000000
C     5.620000000    -2.817000000     6.418000000
H     6.344000000    -3.506000000     6.845000000
C     5.992000000    -1.649000000     5.826000000
H     7.042000000    -1.369000000     5.840000000
C     5.000000000    -0.804000000     5.377000000
C     3.640000000    -1.164000000     5.426000000
H     2.896000000    -0.413000000     5.175000000
C    -1.582000000     0.222000000     1.513000000
H    -2.496000000    -0.103000000     2.003000000
C    -0.990000000    -0.385000000     0.384000000
H    -1.303000000    -1.375000000     0.061000000
C    -0.004000000     0.301000000    -0.305000000
H     0.427000000    -0.157000000    -1.136000000
C     0.457000000     1.492000000     0.157000000
H     1.237000000     1.934000000    -0.459000000
C    -0.019000000     2.043000000     1.357000000
H     0.412000000     2.992000000     1.666000000
C    -1.116000000     1.448000000     2.029000000
C    -1.763000000     2.097000000     3.267000000
O    -1.287000000     3.067000000     3.755000000
O    -2.840000000     1.709000000     3.679000000
O     0.788000000     0.821000000     9.714000000
H     1.037000000    -0.044000000    10.038000000
H     0.410000000     0.654000000     8.850000000
O    -0.378000000     4.750000000     7.855000000
H    -0.321000000     4.052000000     8.507000000
H    -1.122000000     4.504000000     7.305000000
O     1.218000000    -0.467000000     2.872000000
H     1.084000000     0.230000000     3.514000000
H     0.410000000    -0.481000000     2.360000000
O    -1.216000000     7.224000000     6.388000000
H    -1.799000000     7.463000000     7.108000000
H    -0.700000000     6.494000000     6.731000000
O    -1.738000000    -1.282000000     9.437000000
H    -1.920000000    -0.829000000    10.260000000
H    -1.367000000    -0.607000000     8.869000000
O     0.859000000     1.641000000     4.793000000
H     0.163000000     2.227000000     4.497000000
H     1.654000000     2.174000000     4.753000000
O    -0.296000000     8.382000000     1.796000000
H     0.131000000     8.644000000     2.612000000
H    -0.664000000     7.519000000     1.985000000
O    -2.710000000     0.811000000     6.175000000
H    -2.762000000     0.995000000     5.237000000
H    -2.849000000     1.660000000     6.594000000
O    -5.061000000    -0.689000000     6.686000000
H    -4.405000000    -0.018000000     6.872000000
H    -4.882000000    -0.956000000     5.784000000
O    -0.963000000     5.563000000     2.524000000
H    -1.715000000     5.548000000     1.932000000
H    -0.900000000     4.667000000     2.855000000
O    -3.696000000     4.310000000     2.065000000
H    -3.990000000     4.832000000     2.812000000
H    -3.381000000     3.493000000     2.453000000
O    -2.107000000     4.505000000     5.658000000
H    -2.492000000     5.240000000     5.181000000
H    -1.695000000     3.969000000     4.980000000
O    -5.703000000     6.664000000     0.943000000
H    -4.772000000     6.886000000     0.963000000
H    -5.721000000     5.708000000     0.898000000
O     1.079000000     5.453000000     4.593000000
H     0.396000000     5.743000000     3.989000000
H     0.639000000     5.394000000     5.441000000
O    -5.977000000     2.434000000     3.510000000
H    -6.096000000     2.147000000     4.415000000
H    -5.035000000     2.365000000     3.358000000
O    -0.325000000     0.340000000     7.365000000
H     0.273000000     0.490000000     6.633000000
H    -1.193000000     0.526000000     7.007000000
O    -8.043000000     4.462000000     3.578000000
H    -8.880000000     4.133000000     3.907000000
H    -7.563000000     3.676000000     3.317000000
O    -4.290000000     5.905000000     4.220000000
H    -4.579000000     6.691000000     3.756000000
H    -4.817000000     5.891000000     5.018000000
O    -3.539000000     3.049000000     7.351000000
H    -4.336000000     3.536000000     7.563000000
H    -3.030000000     3.650000000     6.807000000
