215
-1481.43985
C    -1.611000000     2.233000000    -4.281000000
H    -1.917000000     1.191000000    -4.292000000
C    -0.272000000     2.517000000    -4.095000000
C     0.050000000     3.864000000    -3.791000000
H     1.062000000     4.205000000    -3.591000000
C     0.783000000     1.420000000    -3.883000000
O     0.812000000     0.370000000    -4.927000000
H     0.615000000     0.901000000    -2.929000000
O     2.134000000     1.999000000    -3.862000000
C     3.133000000     1.493000000    -3.019000000
C     3.215000000     2.189000000    -1.812000000
H     2.774000000     3.179000000    -1.728000000
C     4.064000000     1.674000000    -0.843000000
O     4.277000000     2.462000000     0.280000000
C     4.810000000     0.504000000    -1.059000000
C     5.689000000     0.020000000     0.063000000
H     6.480000000    -0.582000000    -0.388000000
C     4.931000000    -0.746000000     1.134000000
C     4.552000000    -2.065000000     0.950000000
H     4.772000000    -2.617000000     0.040000000
H     6.134000000     0.876000000     0.574000000
C     4.612000000    -0.216000000    -2.261000000
H     4.881000000    -1.268000000    -2.215000000
C     3.765000000     0.245000000    -3.222000000
C     3.435000000    -0.667000000    -4.426000000
H     4.194000000    -1.407000000    -4.685000000
H     3.357000000     0.002000000    -5.287000000
C     2.160000000    -1.442000000    -4.216000000
C     2.171000000    -2.714000000    -3.657000000
H     3.118000000    -3.083000000    -3.273000000
C     0.923000000    -0.915000000    -4.527000000
C    -0.267000000    -1.581000000    -4.241000000
H    -1.226000000    -1.106000000    -4.430000000
C    -0.183000000    -2.915000000    -3.851000000
O    -1.365000000    -3.520000000    -3.577000000
C    -1.892000000    -3.376000000    -2.241000000
C    -3.417000000    -3.232000000    -2.148000000
C    -4.111000000    -3.585000000    -1.017000000
H    -3.650000000    -4.160000000    -0.218000000
C    -4.067000000    -2.547000000    -3.164000000
H    -3.473000000    -2.104000000    -3.960000000
O    -1.508000000    -4.587000000    -1.421000000
H    -1.497000000    -2.501000000    -1.705000000
C     0.992000000    -3.435000000    -3.475000000
C     1.054000000    -4.790000000    -2.827000000
H     1.942000000    -5.338000000    -3.149000000
H     0.291000000    -5.478000000    -3.198000000
C     0.980000000    -4.604000000    -1.333000000
C     2.116000000    -4.648000000    -0.553000000
H     3.020000000    -5.068000000    -0.988000000
C    -0.309000000    -4.570000000    -0.719000000
C    -0.374000000    -4.334000000     0.674000000
H    -1.326000000    -4.267000000     1.196000000
C     0.783000000    -4.268000000     1.420000000
O     0.580000000    -3.848000000     2.743000000
C     0.953000000    -2.484000000     3.061000000
C    -0.188000000    -1.857000000     3.898000000
C    -1.477000000    -1.794000000     3.369000000
H    -1.784000000    -2.262000000     2.437000000
C     0.154000000    -1.147000000     5.063000000
H     1.179000000    -0.921000000     5.347000000
O     2.231000000    -2.505000000     3.696000000
H     1.083000000    -1.890000000     2.144000000
C     2.060000000    -4.366000000     0.795000000
C     3.320000000    -4.223000000     1.649000000
H     4.162000000    -4.756000000     1.202000000
H     3.136000000    -4.669000000     2.629000000
C     3.783000000    -2.756000000     1.910000000
C     3.323000000    -2.025000000     3.016000000
C     3.790000000    -0.768000000     3.249000000
H     3.373000000    -0.295000000     4.134000000
C     4.550000000    -0.109000000     2.275000000
O     4.553000000     1.314000000     2.287000000
C     3.600000000     1.947000000     1.452000000
H     2.868000000     1.228000000     1.056000000
C     2.732000000     2.982000000     2.162000000
C     2.021000000     3.914000000     1.421000000
H     2.200000000     3.879000000     0.349000000
C     2.568000000     3.035000000     3.499000000
H     3.188000000     2.304000000     4.013000000
C     1.843000000     3.987000000     4.191000000
O     1.992000000     4.158000000     5.555000000
C     1.102000000     4.898000000     3.439000000
H     0.506000000     5.659000000     3.936000000
C     1.160000000     4.854000000     2.019000000
O     0.438000000     5.832000000     1.297000000
C     0.762000000     6.109000000     0.011000000
C    -0.142000000     6.018000000    -1.073000000
H    -1.192000000     5.740000000    -1.061000000
C     1.997000000     6.647000000    -0.262000000
H     2.764000000     6.711000000     0.505000000
C     2.403000000     6.990000000    -1.576000000
H     3.482000000     7.088000000    -1.666000000
C     1.489000000     6.904000000    -2.612000000
H     1.770000000     7.332000000    -3.571000000
C     0.247000000     6.354000000    -2.386000000
O    -0.632000000     6.120000000    -3.437000000
C    -0.960000000     4.811000000    -3.735000000
C    -2.261000000     4.485000000    -3.929000000
H    -2.986000000     5.268000000    -3.725000000
C    -2.583000000     3.169000000    -4.184000000
O    -3.933000000     2.789000000    -4.302000000
C    -4.402000000     1.677000000    -4.928000000
C    -4.926000000     0.655000000    -4.066000000
H    -5.058000000     0.775000000    -2.994000000
C    -4.249000000     1.489000000    -6.280000000
H    -3.818000000     2.259000000    -6.916000000
C    -4.704000000     0.293000000    -6.890000000
H    -4.584000000     0.071000000    -7.947000000
C    -5.292000000    -0.615000000    -6.084000000
H    -5.787000000    -1.508000000    -6.458000000
C    -5.421000000    -0.473000000    -4.672000000
O    -6.047000000    -1.490000000    -3.993000000
C    -5.431000000    -2.185000000    -2.985000000
C    -6.157000000    -2.549000000    -1.831000000
H    -7.211000000    -2.332000000    -1.679000000
C    -5.444000000    -3.171000000    -0.839000000
O    -6.139000000    -3.595000000     0.293000000
C    -5.658000000    -3.572000000     1.615000000
C    -4.929000000    -2.457000000     2.030000000
H    -4.811000000    -1.536000000     1.465000000
C    -5.969000000    -4.536000000     2.509000000
H    -6.578000000    -5.396000000     2.241000000
C    -5.498000000    -4.519000000     3.825000000
H    -5.778000000    -5.390000000     4.412000000
C    -4.716000000    -3.454000000     4.250000000
H    -4.308000000    -3.314000000     5.248000000
C    -4.486000000    -2.441000000     3.358000000
O    -3.808000000    -1.291000000     3.768000000
C    -2.476000000    -1.170000000     4.123000000
C    -2.160000000    -0.447000000     5.254000000
H    -2.903000000    -0.023000000     5.924000000
C    -0.826000000    -0.486000000     5.743000000
O    -0.536000000     0.228000000     6.951000000
C     0.297000000     1.296000000     7.217000000
C     0.838000000     1.432000000     8.543000000
H     0.534000000     0.644000000     9.227000000
C     1.784000000     2.393000000     8.806000000
H     2.217000000     2.339000000     9.802000000
C     2.105000000     3.363000000     7.831000000
H     2.868000000     4.100000000     8.067000000
C     1.590000000     3.246000000     6.516000000
C     0.704000000     2.245000000     6.221000000
H     0.325000000     2.005000000     5.231000000
C    -2.191000000    -0.104000000    -0.166000000
H    -2.927000000    -0.828000000     0.176000000
C    -0.780000000    -0.465000000    -0.140000000
H    -0.530000000    -1.488000000     0.131000000
C     0.204000000     0.488000000    -0.493000000
H     1.275000000     0.270000000    -0.377000000
C    -0.150000000     1.788000000    -0.627000000
H     0.617000000     2.526000000    -0.849000000
C    -1.541000000     2.178000000    -0.517000000
H    -1.796000000     3.229000000    -0.626000000
C    -2.559000000     1.256000000    -0.323000000
C    -4.031000000     1.534000000    -0.142000000
O    -4.463000000     2.684000000    -0.009000000
O    -4.793000000     0.615000000    -0.271000000
O    -2.573000000     2.600000000     5.028000000
H    -2.980000000     3.024000000     4.272000000
H    -1.766000000     2.218000000     4.682000000
O    -5.095000000     7.675000000     2.723000000
H    -5.783000000     7.389000000     2.122000000
H    -4.494000000     6.931000000     2.771000000
O    -6.725000000     3.735000000    -0.739000000
H    -6.470000000     4.656000000    -0.798000000
H    -5.934000000     3.287000000    -0.440000000
O    -0.723000000     1.685000000     2.810000000
H    -0.254000000     1.932000000     2.013000000
H    -0.279000000     0.892000000     3.112000000
O    -5.574000000     0.958000000     4.461000000
H    -4.757000000     0.480000000     4.320000000
H    -5.513000000     1.276000000     5.362000000
O    -5.749000000     7.334000000    -1.359000000
H    -6.184000000     7.245000000    -0.511000000
H    -5.073000000     6.657000000    -1.353000000
O    -6.571000000     4.384000000     2.788000000
H    -6.823000000     4.474000000     3.706000000
H    -6.841000000     3.496000000     2.551000000
O    -6.601000000     1.446000000     1.648000000
H    -5.970000000     1.215000000     2.329000000
H    -6.205000000     1.130000000     0.837000000
O    -7.224000000     0.598000000    -1.312000000
H    -6.389000000     0.293000000    -0.957000000
H    -7.256000000     1.527000000    -1.083000000
O    -2.703000000     5.958000000     3.468000000
H    -2.641000000     5.264000000     2.812000000
H    -2.257000000     5.602000000     4.236000000
O    -8.099000000    -0.196000000     3.935000000
H    -7.633000000    -0.080000000     3.108000000
H    -7.461000000     0.047000000     4.606000000
O    -6.928000000     6.315000000     0.915000000
H    -6.736000000     5.808000000     1.703000000
H    -7.843000000     6.111000000     0.716000000
O    -7.997000000     1.230000000    -3.879000000
H    -8.470000000     1.731000000    -3.215000000
H    -7.290000000     0.801000000    -3.397000000
O    -3.955000000     4.973000000    -1.323000000
H    -4.199000000     4.345000000    -2.003000000
H    -4.200000000     4.544000000    -0.503000000
O    -9.674000000    -0.034000000    -0.721000000
H   -10.009000000     0.833000000    -0.949000000
H    -8.782000000    -0.045000000    -1.066000000
O    -9.106000000     2.397000000     3.707000000
H    -9.525000000     2.449000000     4.567000000
H    -8.824000000     1.486000000     3.632000000
O    -3.299000000     3.314000000     2.425000000
H    -2.515000000     2.788000000     2.268000000
H    -3.812000000     3.225000000     1.622000000
O    -9.094000000     2.964000000    -1.864000000
H    -9.790000000     3.620000000    -1.852000000
H    -8.407000000     3.332000000    -1.308000000
O   -10.122000000     2.740000000     1.175000000
H    -9.827000000     2.549000000     2.066000000
H    -9.565000000     2.198000000     0.617000000
