215
-1459.36628
C    -0.217000000     5.121000000    -1.037000000
H    -1.179000000     4.952000000    -1.514000000
C     0.935000000     4.518000000    -1.537000000
C     2.216000000     4.749000000    -0.956000000
H     3.142000000     4.321000000    -1.333000000
C     0.925000000     3.365000000    -2.573000000
O    -0.041000000     3.564000000    -3.640000000
H     0.609000000     2.493000000    -1.981000000
O     2.165000000     3.078000000    -3.185000000
C     2.647000000     1.724000000    -3.287000000
C     3.605000000     1.291000000    -2.454000000
H     3.990000000     1.909000000    -1.646000000
C     3.978000000    -0.071000000    -2.467000000
O     4.869000000    -0.410000000    -1.549000000
C     3.454000000    -0.953000000    -3.436000000
C     3.870000000    -2.403000000    -3.480000000
H     3.820000000    -2.798000000    -4.496000000
C     2.992000000    -3.174000000    -2.512000000
C     1.803000000    -3.695000000    -2.962000000
H     1.437000000    -3.669000000    -3.985000000
H     4.929000000    -2.461000000    -3.223000000
C     2.568000000    -0.462000000    -4.371000000
H     2.110000000    -0.970000000    -5.216000000
C     2.110000000     0.815000000    -4.254000000
C     1.052000000     1.274000000    -5.270000000
H     1.089000000     0.663000000    -6.174000000
H     1.244000000     2.237000000    -5.748000000
C    -0.377000000     1.407000000    -4.701000000
C    -1.201000000     0.334000000    -4.927000000
H    -0.942000000    -0.391000000    -5.694000000
C    -0.871000000     2.493000000    -3.969000000
C    -2.083000000     2.351000000    -3.274000000
H    -2.462000000     3.177000000    -2.677000000
C    -2.879000000     1.254000000    -3.372000000
O    -3.914000000     1.154000000    -2.485000000
C    -3.696000000     0.291000000    -1.406000000
C    -4.305000000     0.908000000    -0.100000000
C    -4.852000000     0.044000000     0.825000000
H    -4.721000000    -1.035000000     0.827000000
C    -4.247000000     2.283000000     0.140000000
H    -3.690000000     2.990000000    -0.469000000
O    -4.354000000    -0.947000000    -1.735000000
H    -2.653000000     0.107000000    -1.109000000
C    -2.459000000     0.243000000    -4.230000000
C    -3.194000000    -1.090000000    -4.475000000
H    -2.980000000    -1.590000000    -5.422000000
H    -4.245000000    -0.792000000    -4.463000000
C    -2.890000000    -2.052000000    -3.275000000
C    -1.836000000    -2.964000000    -3.383000000
H    -1.397000000    -2.869000000    -4.373000000
C    -3.504000000    -1.952000000    -2.020000000
C    -3.131000000    -2.861000000    -1.041000000
H    -3.679000000    -2.782000000    -0.106000000
C    -2.187000000    -3.879000000    -1.242000000
O    -1.759000000    -4.666000000    -0.206000000
C    -0.707000000    -4.139000000     0.569000000
C    -1.049000000    -4.131000000     2.023000000
C    -2.386000000    -4.360000000     2.494000000
H    -3.146000000    -4.608000000     1.757000000
C    -0.072000000    -3.895000000     2.991000000
H     0.920000000    -3.683000000     2.600000000
O     0.404000000    -4.926000000     0.237000000
H    -0.558000000    -3.131000000     0.156000000
C    -1.503000000    -3.937000000    -2.445000000
C    -0.359000000    -4.999000000    -2.673000000
H    -0.216000000    -5.225000000    -3.732000000
H    -0.562000000    -5.928000000    -2.135000000
C     0.971000000    -4.454000000    -2.132000000
C     1.273000000    -4.471000000    -0.731000000
C     2.492000000    -3.997000000    -0.272000000
H     2.716000000    -3.950000000     0.790000000
C     3.364000000    -3.273000000    -1.176000000
O     4.485000000    -2.570000000    -0.627000000
C     4.299000000    -1.179000000    -0.492000000
H     3.236000000    -0.897000000    -0.520000000
C     4.795000000    -0.646000000     0.899000000
C     4.948000000     0.714000000     1.098000000
H     4.928000000     1.391000000     0.248000000
C     4.680000000    -1.482000000     2.009000000
H     4.318000000    -2.492000000     1.839000000
C     4.880000000    -0.966000000     3.311000000
O     4.786000000    -1.729000000     4.499000000
C     5.079000000     0.399000000     3.509000000
H     5.297000000     0.795000000     4.497000000
C     5.172000000     1.201000000     2.345000000
O     5.607000000     2.513000000     2.579000000
C     5.668000000     3.565000000     1.704000000
C     4.581000000     4.394000000     1.564000000
H     3.745000000     4.303000000     2.253000000
C     6.785000000     3.706000000     0.864000000
H     7.586000000     2.986000000     1.010000000
C     6.795000000     4.732000000    -0.095000000
H     7.534000000     4.671000000    -0.890000000
C     5.638000000     5.513000000    -0.288000000
H     5.586000000     6.154000000    -1.165000000
C     4.543000000     5.387000000     0.593000000
O     3.456000000     6.179000000     0.536000000
C     2.267000000     5.735000000     0.026000000
C     1.122000000     6.439000000     0.423000000
H     1.239000000     7.290000000     1.089000000
C    -0.114000000     6.127000000    -0.069000000
O    -1.218000000     6.934000000     0.260000000
C    -2.564000000     6.610000000     0.176000000
C    -3.062000000     5.466000000     0.764000000
H    -2.396000000     4.901000000     1.411000000
C    -3.367000000     7.309000000    -0.731000000
H    -2.775000000     8.069000000    -1.234000000
C    -4.668000000     6.960000000    -1.100000000
H    -5.309000000     7.618000000    -1.681000000
C    -5.212000000     5.920000000    -0.324000000
H    -6.291000000     5.795000000    -0.298000000
C    -4.419000000     5.109000000     0.507000000
O    -5.002000000     4.167000000     1.338000000
C    -4.948000000     2.850000000     1.165000000
C    -5.580000000     2.032000000     2.068000000
H    -6.127000000     2.505000000     2.879000000
C    -5.402000000     0.622000000     2.005000000
O    -5.792000000    -0.148000000     3.061000000
C    -6.001000000    -1.501000000     3.241000000
C    -4.911000000    -2.353000000     3.493000000
H    -3.936000000    -1.873000000     3.445000000
C    -7.299000000    -2.037000000     3.420000000
H    -8.093000000    -1.317000000     3.237000000
C    -7.506000000    -3.347000000     3.916000000
H    -8.485000000    -3.760000000     4.146000000
C    -6.406000000    -4.207000000     4.042000000
H    -6.490000000    -5.182000000     4.515000000
C    -5.104000000    -3.677000000     3.892000000
O    -4.017000000    -4.446000000     4.259000000
C    -2.685000000    -4.270000000     3.853000000
C    -1.665000000    -4.103000000     4.792000000
H    -1.926000000    -3.921000000     5.831000000
C    -0.359000000    -3.979000000     4.322000000
O     0.621000000    -3.742000000     5.239000000
C     1.971000000    -3.894000000     4.936000000
C     2.522000000    -5.130000000     4.580000000
H     1.979000000    -6.067000000     4.480000000
C     3.878000000    -5.233000000     4.267000000
H     4.327000000    -6.189000000     4.009000000
C     4.666000000    -4.122000000     4.374000000
H     5.740000000    -4.127000000     4.207000000
C     4.118000000    -2.912000000     4.637000000
C     2.739000000    -2.780000000     4.979000000
H     2.380000000    -1.784000000     5.224000000
C     1.454000000     0.429000000     1.950000000
H     2.065000000     0.096000000     2.785000000
C     1.145000000    -0.532000000     0.963000000
H     1.597000000    -1.516000000     0.871000000
C     0.326000000    -0.194000000    -0.095000000
H     0.089000000    -0.852000000    -0.995000000
C    -0.165000000     1.107000000    -0.124000000
H    -0.719000000     1.372000000    -1.021000000
C     0.124000000     2.036000000     0.907000000
H    -0.365000000     3.002000000     0.809000000
C     0.928000000     1.728000000     1.977000000
C     1.191000000     2.685000000     3.116000000
O     0.554000000     3.701000000     3.266000000
O     2.105000000     2.412000000     3.906000000
O    -3.670000000     3.772000000     8.480000000
H    -4.253000000     3.022000000     8.600000000
H    -2.845000000     3.389000000     8.183000000
O     3.540000000     3.815000000     5.576000000
H     3.077000000     3.177000000     5.033000000
H     4.146000000     4.247000000     4.973000000
O    -2.303000000    -1.711000000     7.036000000
H    -2.725000000    -1.076000000     6.458000000
H    -1.375000000    -1.478000000     7.010000000
O     3.081000000     8.642000000    -0.795000000
H     3.263000000     7.942000000    -0.168000000
H     2.985000000     9.427000000    -0.256000000
O     4.918000000     6.121000000     7.401000000
H     4.765000000     5.300000000     6.931000000
H     5.719000000     5.964000000     7.901000000
O     2.113000000     1.118000000     9.221000000
H     1.713000000     0.751000000    10.009000000
H     1.373000000     1.428000000     8.699000000
O     4.508000000     2.814000000     7.810000000
H     4.209000000     1.991000000     8.198000000
H     3.906000000     2.969000000     7.083000000
O    -0.726000000     3.797000000     7.709000000
H    -0.516000000     4.507000000     7.102000000
H    -0.201000000     3.984000000     8.487000000
O    -2.572000000     2.757000000     5.697000000
H    -2.412000000     3.462000000     5.070000000
H    -1.987000000     2.950000000     6.430000000
O     0.975000000     1.945000000     6.421000000
H     0.494000000     2.719000000     6.713000000
H     1.275000000     2.168000000     5.540000000
O     1.328000000     8.148000000     4.764000000
H     1.087000000     8.165000000     5.690000000
H     1.567000000     7.237000000     4.595000000
O    -4.388000000     4.987000000     4.110000000
H    -3.434000000     4.915000000     4.076000000
H    -4.685000000     4.643000000     3.267000000
O    -1.447000000     6.535000000     6.664000000
H    -0.737000000     7.053000000     7.040000000
H    -1.549000000     6.876000000     5.775000000
O    -1.317000000     7.686000000     4.086000000
H    -0.451000000     8.088000000     4.015000000
H    -1.741000000     7.883000000     3.251000000
O    -1.833000000     0.224000000     2.635000000
H    -1.131000000     0.054000000     3.264000000
H    -1.392000000     0.629000000     1.888000000
O    -3.426000000     0.175000000     5.185000000
H    -3.131000000    -0.026000000     4.297000000
H    -3.073000000     1.047000000     5.362000000
O     1.237000000     5.238000000     5.487000000
H     0.869000000     4.713000000     4.776000000
H     2.043000000     4.781000000     5.729000000
O     0.186000000    -0.767000000     7.317000000
H     0.540000000     0.109000000     7.162000000
H     0.881000000    -1.226000000     7.788000000
O    -1.847000000     4.825000000     3.720000000
H    -1.706000000     5.721000000     4.027000000
H    -0.973000000     4.512000000     3.486000000
