215
-1445.03066
C     0.140000000     5.080000000    -1.590000000
H    -0.857000000     4.713000000    -1.818000000
C     1.255000000     4.466000000    -2.090000000
C     2.490000000     4.859000000    -1.627000000
H     3.387000000     4.481000000    -2.111000000
C     1.103000000     3.218000000    -2.875000000
O    -0.148000000     3.248000000    -3.685000000
H     1.082000000     2.375000000    -2.168000000
O     2.223000000     2.975000000    -3.775000000
C     2.604000000     1.618000000    -3.771000000
C     3.546000000     1.190000000    -2.948000000
H     4.197000000     1.812000000    -2.339000000
C     3.836000000    -0.166000000    -2.819000000
O     4.626000000    -0.569000000    -1.815000000
C     3.251000000    -1.139000000    -3.729000000
C     3.505000000    -2.668000000    -3.597000000
H     3.206000000    -3.146000000    -4.533000000
C     2.611000000    -3.242000000    -2.512000000
C     1.445000000    -3.894000000    -2.854000000
H     1.111000000    -4.012000000    -3.881000000
H     4.545000000    -2.946000000    -3.415000000
C     2.275000000    -0.642000000    -4.569000000
H     1.735000000    -1.372000000    -5.166000000
C     1.945000000     0.714000000    -4.645000000
C     0.763000000     1.118000000    -5.539000000
H     0.790000000     0.471000000    -6.418000000
H     0.952000000     2.116000000    -5.940000000
C    -0.493000000     1.107000000    -4.709000000
C    -1.345000000     0.007000000    -4.706000000
H    -1.226000000    -0.791000000    -5.434000000
C    -0.872000000     2.121000000    -3.827000000
C    -2.024000000     2.076000000    -3.064000000
H    -2.316000000     2.963000000    -2.509000000
C    -2.834000000     1.002000000    -3.114000000
O    -3.862000000     0.999000000    -2.233000000
C    -3.841000000     0.066000000    -1.099000000
C    -4.473000000     0.738000000     0.127000000
C    -5.242000000     0.072000000     1.117000000
H    -5.364000000    -1.005000000     1.029000000
C    -4.136000000     2.085000000     0.342000000
H    -3.401000000     2.493000000    -0.346000000
O    -4.687000000    -1.059000000    -1.530000000
H    -2.819000000    -0.300000000    -0.919000000
C    -2.478000000    -0.117000000    -3.864000000
C    -3.429000000    -1.296000000    -4.024000000
H    -3.186000000    -1.788000000    -4.969000000
H    -4.439000000    -0.970000000    -4.283000000
C    -3.238000000    -2.328000000    -2.885000000
C    -2.218000000    -3.259000000    -2.998000000
H    -1.694000000    -3.457000000    -3.930000000
C    -3.987000000    -2.226000000    -1.700000000
C    -3.694000000    -3.091000000    -0.662000000
H    -4.151000000    -3.040000000     0.323000000
C    -2.651000000    -3.999000000    -0.772000000
O    -2.257000000    -4.634000000     0.364000000
C    -1.096000000    -4.029000000     0.948000000
C    -1.196000000    -4.038000000     2.500000000
C    -2.443000000    -3.739000000     3.035000000
H    -3.336000000    -3.585000000     2.434000000
C    -0.042000000    -4.134000000     3.279000000
H     0.944000000    -4.275000000     2.842000000
O     0.105000000    -4.679000000     0.513000000
H    -1.041000000    -2.954000000     0.723000000
C    -1.922000000    -4.101000000    -1.972000000
C    -0.724000000    -5.126000000    -2.236000000
H    -0.713000000    -5.510000000    -3.259000000
H    -0.860000000    -5.923000000    -1.501000000
C     0.557000000    -4.458000000    -1.875000000
C     0.881000000    -4.243000000    -0.512000000
C     2.110000000    -3.650000000    -0.129000000
H     2.234000000    -3.585000000     0.949000000
C     2.988000000    -3.195000000    -1.127000000
O     4.126000000    -2.641000000    -0.731000000
C     3.984000000    -1.185000000    -0.611000000
H     2.918000000    -0.923000000    -0.546000000
C     4.531000000    -0.476000000     0.649000000
C     5.086000000     0.827000000     0.660000000
H     5.345000000     1.334000000    -0.265000000
C     4.348000000    -1.130000000     1.871000000
H     3.878000000    -2.107000000     1.944000000
C     4.668000000    -0.501000000     3.083000000
O     4.454000000    -1.170000000     4.274000000
C     5.255000000     0.774000000     3.104000000
H     5.404000000     1.244000000     4.072000000
C     5.562000000     1.383000000     1.900000000
O     6.041000000     2.693000000     2.033000000
C     6.075000000     3.610000000     0.990000000
C     4.977000000     4.485000000     0.890000000
H     4.148000000     4.406000000     1.589000000
C     7.170000000     3.751000000     0.119000000
H     8.071000000     3.147000000     0.191000000
C     7.140000000     4.728000000    -0.906000000
H     8.056000000     4.902000000    -1.465000000
C     6.025000000     5.540000000    -1.092000000
H     5.996000000     6.293000000    -1.875000000
C     4.962000000     5.489000000    -0.130000000
O     3.899000000     6.271000000    -0.340000000
C     2.658000000     5.845000000    -0.644000000
C     1.539000000     6.523000000    -0.197000000
H     1.628000000     7.337000000     0.518000000
C     0.250000000     6.153000000    -0.655000000
O    -0.837000000     6.746000000    -0.081000000
C    -2.107000000     6.332000000    -0.185000000
C    -2.535000000     5.333000000     0.680000000
H    -1.826000000     4.812000000     1.318000000
C    -3.002000000     7.043000000    -0.915000000
H    -2.535000000     7.897000000    -1.399000000
C    -4.378000000     6.725000000    -0.870000000
H    -5.099000000     7.357000000    -1.381000000
C    -4.760000000     5.713000000    -0.036000000
H    -5.812000000     5.471000000     0.084000000
C    -3.864000000     4.911000000     0.646000000
O    -4.294000000     4.089000000     1.652000000
C    -4.681000000     2.766000000     1.440000000
C    -5.472000000     2.097000000     2.363000000
H    -5.984000000     2.613000000     3.171000000
C    -5.730000000     0.695000000     2.243000000
O    -6.635000000    -0.024000000     3.124000000
C    -6.432000000    -1.314000000     3.519000000
C    -5.287000000    -1.683000000     4.201000000
H    -4.545000000    -0.975000000     4.563000000
C    -7.403000000    -2.295000000     3.232000000
H    -8.382000000    -1.926000000     2.937000000
C    -7.161000000    -3.594000000     3.677000000
H    -7.982000000    -4.306000000     3.652000000
C    -5.960000000    -3.993000000     4.192000000
H    -5.723000000    -5.023000000     4.445000000
C    -4.963000000    -3.006000000     4.405000000
O    -3.716000000    -3.218000000     5.019000000
C    -2.548000000    -3.463000000     4.394000000
C    -1.394000000    -3.565000000     5.203000000
H    -1.545000000    -3.484000000     6.277000000
C    -0.167000000    -3.948000000     4.673000000
O     0.864000000    -4.018000000     5.542000000
C     2.147000000    -3.880000000     5.189000000
C     2.993000000    -4.962000000     5.037000000
H     2.592000000    -5.939000000     5.295000000
C     4.301000000    -4.826000000     4.655000000
H     5.001000000    -5.649000000     4.542000000
C     4.761000000    -3.564000000     4.440000000
H     5.799000000    -3.439000000     4.143000000
C     3.904000000    -2.448000000     4.523000000
C     2.627000000    -2.633000000     4.894000000
H     1.902000000    -1.829000000     4.993000000
C     0.826000000     0.200000000     2.484000000
H     1.324000000    -0.105000000     3.401000000
C     0.367000000    -0.742000000     1.607000000
H     0.322000000    -1.758000000     1.991000000
C    -0.088000000    -0.327000000     0.348000000
H    -0.497000000    -1.057000000    -0.283000000
C    -0.154000000     0.977000000    -0.015000000
H    -0.481000000     1.234000000    -1.019000000
C     0.278000000     1.958000000     0.902000000
H     0.196000000     3.007000000     0.630000000
C     0.815000000     1.572000000     2.142000000
C     1.373000000     2.690000000     3.026000000
O     1.482000000     3.812000000     2.578000000
O     1.900000000     2.516000000     4.094000000
O    -2.437000000     1.758000000     9.042000000
H    -2.581000000     2.594000000     8.598000000
H    -1.847000000     1.277000000     8.462000000
O     4.261000000     3.504000000     4.144000000
H     3.330000000     3.287000000     4.097000000
H     4.662000000     2.994000000     3.441000000
O     5.330000000     6.197000000     7.106000000
H     5.407000000     6.485000000     8.015000000
H     4.972000000     5.311000000     7.165000000
O     4.030000000     2.966000000     6.965000000
H     3.347000000     3.575000000     7.243000000
H     4.111000000     3.110000000     6.022000000
O     6.644000000     4.808000000     4.451000000
H     5.727000000     4.625000000     4.250000000
H     6.776000000     4.442000000     5.325000000
O     1.969000000     4.373000000     8.119000000
H     1.357000000     4.794000000     7.514000000
H     1.557000000     4.465000000     8.978000000
O    -1.455000000     3.595000000     6.051000000
H    -2.019000000     4.364000000     5.970000000
H    -0.668000000     3.822000000     5.556000000
O     1.230000000     0.963000000     6.110000000
H     2.028000000     0.562000000     6.452000000
H     1.533000000     1.746000000     5.649000000
O     3.794000000     8.522000000     3.923000000
H     3.608000000     8.530000000     4.862000000
H     3.942000000     7.599000000     3.716000000
O    -2.581000000     6.282000000     4.153000000
H    -1.737000000     5.830000000     4.162000000
H    -2.433000000     7.052000000     3.603000000
O    -0.091000000     6.303000000     7.771000000
H     0.475000000     6.775000000     8.381000000
H    -0.242000000     6.921000000     7.056000000
O     0.659000000     8.140000000     4.059000000
H     0.616000000     8.630000000     3.238000000
H     1.594000000     8.074000000     4.250000000
O    -1.834000000     0.499000000     3.836000000
H    -0.904000000     0.714000000     3.897000000
H    -1.866000000    -0.268000000     3.265000000
O     5.423000000     0.821000000     8.516000000
H     4.722000000     0.180000000     8.398000000
H     5.137000000     1.584000000     8.014000000
O    -3.416000000     1.469000000     5.650000000
H    -2.996000000     1.088000000     4.879000000
H    -2.962000000     2.301000000     5.783000000
O     2.798000000     5.959000000     3.791000000
H     2.102000000     5.499000000     3.321000000
H     3.276000000     5.267000000     4.247000000
O    -4.924000000     5.642000000     4.988000000
H    -4.036000000     5.717000000     4.639000000
H    -5.049000000     6.441000000     5.499000000
O    -0.737000000    -0.193000000     7.594000000
H    -0.359000000     0.263000000     6.842000000
H    -0.079000000    -0.105000000     8.283000000
O    -0.182000000     5.067000000     4.108000000
H     0.283000000     5.902000000     4.056000000
H     0.365000000     4.457000000     3.613000000
