215
-1434.59959
C    -0.196000000     5.277000000    -1.426000000
H    -1.113000000     5.120000000    -1.990000000
C     1.044000000     4.607000000    -1.663000000
C     2.178000000     5.125000000    -1.067000000
H     3.113000000     4.630000000    -1.317000000
C     1.064000000     3.406000000    -2.654000000
O     0.030000000     3.587000000    -3.711000000
H     1.030000000     2.521000000    -2.001000000
O     2.332000000     3.253000000    -3.199000000
C     2.859000000     1.980000000    -3.260000000
C     3.832000000     1.576000000    -2.308000000
H     4.255000000     2.288000000    -1.604000000
C     4.153000000     0.257000000    -2.202000000
O     4.823000000    -0.106000000    -1.052000000
C     3.529000000    -0.721000000    -3.004000000
C     3.974000000    -2.166000000    -3.024000000
H     3.956000000    -2.543000000    -4.048000000
C     3.150000000    -3.008000000    -2.082000000
C     2.010000000    -3.634000000    -2.633000000
H     1.976000000    -3.631000000    -3.719000000
H     5.015000000    -2.150000000    -2.693000000
C     2.745000000    -0.289000000    -4.036000000
H     2.413000000    -0.986000000    -4.801000000
C     2.350000000     1.054000000    -4.157000000
C     1.347000000     1.465000000    -5.273000000
H     1.500000000     0.796000000    -6.122000000
H     1.602000000     2.441000000    -5.691000000
C    -0.095000000     1.456000000    -4.774000000
C    -0.841000000     0.288000000    -4.979000000
H    -0.477000000    -0.482000000    -5.653000000
C    -0.676000000     2.485000000    -3.962000000
C    -1.990000000     2.367000000    -3.409000000
H    -2.286000000     3.192000000    -2.766000000
C    -2.587000000     1.111000000    -3.533000000
O    -3.670000000     0.837000000    -2.669000000
C    -3.470000000    -0.095000000    -1.605000000
C    -3.975000000     0.544000000    -0.290000000
C    -4.322000000    -0.228000000     0.853000000
H    -4.103000000    -1.292000000     0.881000000
C    -4.070000000     1.895000000    -0.148000000
H    -3.704000000     2.573000000    -0.915000000
O    -4.175000000    -1.289000000    -1.905000000
H    -2.417000000    -0.334000000    -1.397000000
C    -2.101000000     0.088000000    -4.346000000
C    -2.732000000    -1.311000000    -4.554000000
H    -2.258000000    -1.654000000    -5.476000000
H    -3.797000000    -1.194000000    -4.764000000
C    -2.599000000    -2.337000000    -3.445000000
C    -1.480000000    -3.163000000    -3.466000000
H    -0.772000000    -3.188000000    -4.290000000
C    -3.412000000    -2.360000000    -2.316000000
C    -3.131000000    -3.298000000    -1.317000000
H    -3.677000000    -3.339000000    -0.378000000
C    -2.065000000    -4.191000000    -1.349000000
O    -1.746000000    -4.858000000    -0.230000000
C    -0.746000000    -4.302000000     0.661000000
C    -1.160000000    -4.397000000     2.098000000
C    -2.489000000    -4.688000000     2.421000000
H    -3.236000000    -4.646000000     1.633000000
C    -0.174000000    -4.330000000     3.083000000
H     0.892000000    -4.213000000     2.904000000
O     0.462000000    -4.944000000     0.374000000
H    -0.573000000    -3.261000000     0.349000000
C    -1.240000000    -4.079000000    -2.453000000
C     0.004000000    -5.016000000    -2.458000000
H     0.288000000    -5.170000000    -3.501000000
H    -0.231000000    -5.992000000    -2.029000000
C     1.157000000    -4.325000000    -1.805000000
C     1.357000000    -4.311000000    -0.455000000
C     2.459000000    -3.686000000     0.094000000
H     2.583000000    -3.661000000     1.173000000
C     3.342000000    -3.039000000    -0.696000000
O     4.236000000    -2.232000000    -0.120000000
C     4.012000000    -0.793000000    -0.062000000
H     2.962000000    -0.601000000    -0.326000000
C     4.213000000    -0.155000000     1.343000000
C     4.354000000     1.201000000     1.536000000
H     4.543000000     1.837000000     0.675000000
C     4.048000000    -0.911000000     2.476000000
H     3.821000000    -1.957000000     2.289000000
C     4.035000000    -0.356000000     3.717000000
O     3.650000000    -1.070000000     4.801000000
C     4.180000000     1.019000000     3.928000000
H     4.167000000     1.449000000     4.926000000
C     4.443000000     1.770000000     2.834000000
O     4.549000000     3.130000000     3.033000000
C     4.978000000     3.985000000     2.126000000
C     4.009000000     4.926000000     1.735000000
H     3.022000000     4.897000000     2.188000000
C     6.240000000     3.955000000     1.514000000
H     6.936000000     3.171000000     1.800000000
C     6.488000000     4.858000000     0.504000000
H     7.401000000     4.985000000    -0.074000000
C     5.528000000     5.797000000     0.053000000
H     5.671000000     6.448000000    -0.806000000
C     4.322000000     5.853000000     0.711000000
O     3.315000000     6.717000000     0.321000000
C     2.121000000     6.257000000    -0.267000000
C     0.869000000     6.881000000    -0.005000000
H     0.918000000     7.840000000     0.504000000
C    -0.225000000     6.397000000    -0.581000000
O    -1.446000000     7.051000000    -0.336000000
C    -2.654000000     6.415000000    -0.479000000
C    -3.094000000     5.476000000     0.343000000
H    -2.573000000     5.282000000     1.278000000
C    -3.456000000     6.774000000    -1.568000000
H    -3.107000000     7.568000000    -2.223000000
C    -4.737000000     6.239000000    -1.772000000
H    -5.347000000     6.653000000    -2.571000000
C    -5.179000000     5.184000000    -0.923000000
H    -6.139000000     4.728000000    -1.151000000
C    -4.352000000     4.821000000     0.168000000
O    -4.714000000     3.850000000     1.011000000
C    -4.697000000     2.443000000     0.925000000
C    -5.194000000     1.638000000     1.963000000
H    -5.649000000     2.030000000     2.869000000
C    -4.848000000     0.347000000     1.993000000
O    -5.137000000    -0.346000000     3.162000000
C    -5.582000000    -1.714000000     3.194000000
C    -4.761000000    -2.742000000     3.824000000
H    -3.776000000    -2.440000000     4.171000000
C    -6.803000000    -2.109000000     2.623000000
H    -7.412000000    -1.384000000     2.089000000
C    -7.211000000    -3.448000000     2.670000000
H    -8.164000000    -3.702000000     2.214000000
C    -6.331000000    -4.384000000     3.160000000
H    -6.622000000    -5.429000000     3.088000000
C    -5.071000000    -4.101000000     3.662000000
O    -4.154000000    -5.111000000     4.062000000
C    -2.831000000    -4.943000000     3.754000000
C    -1.837000000    -4.895000000     4.750000000
H    -2.079000000    -5.184000000     5.770000000
C    -0.523000000    -4.577000000     4.434000000
O     0.392000000    -4.499000000     5.397000000
C     1.697000000    -4.118000000     5.188000000
C     2.664000000    -5.062000000     5.065000000
H     2.298000000    -6.083000000     5.145000000
C     3.966000000    -4.672000000     4.859000000
H     4.712000000    -5.440000000     4.675000000
C     4.244000000    -3.348000000     4.724000000
H     5.291000000    -3.121000000     4.538000000
C     3.270000000    -2.399000000     4.820000000
C     1.937000000    -2.789000000     5.082000000
H     1.169000000    -2.023000000     5.150000000
C     0.701000000     0.064000000     2.141000000
H     1.021000000    -0.323000000     3.105000000
C     0.370000000    -0.905000000     1.200000000
H     0.518000000    -1.940000000     1.497000000
C     0.015000000    -0.542000000    -0.100000000
H    -0.284000000    -1.327000000    -0.816000000
C     0.038000000     0.807000000    -0.469000000
H    -0.145000000     1.037000000    -1.516000000
C     0.313000000     1.823000000     0.436000000
H     0.382000000     2.863000000     0.126000000
C     0.682000000     1.448000000     1.782000000
C     0.835000000     2.458000000     2.883000000
O     0.994000000     3.594000000     2.564000000
O     0.759000000     2.145000000     4.092000000
O     2.449000000     3.790000000     5.116000000
H     1.787000000     3.242000000     4.694000000
H     3.039000000     4.043000000     4.406000000
O     2.171000000     4.291000000     9.012000000
H     2.149000000     4.178000000     8.062000000
H     3.054000000     4.019000000     9.265000000
O     3.956000000     6.151000000     7.321000000
H     4.693000000     6.731000000     7.129000000
H     4.297000000     5.271000000     7.166000000
O    -2.734000000     1.614000000     8.036000000
H    -1.783000000     1.710000000     8.077000000
H    -3.071000000     2.500000000     8.167000000
O    -2.059000000     6.574000000     4.219000000
H    -2.072000000     6.433000000     5.166000000
H    -2.934000000     6.318000000     3.926000000
O     4.732000000     3.547000000     7.075000000
H     5.035000000     2.690000000     7.377000000
H     3.898000000     3.366000000     6.641000000
O     7.263000000     1.640000000     5.465000000
H     7.627000000     1.021000000     4.832000000
H     6.421000000     1.259000000     5.715000000
O     0.181000000     1.670000000     7.117000000
H    -0.031000000     2.076000000     6.276000000
H     1.106000000     1.436000000     7.043000000
O    -1.103000000    -0.900000000     5.533000000
H    -1.495000000    -0.117000000     5.148000000
H    -1.580000000    -1.628000000     5.133000000
O     0.395000000     6.240000000     3.219000000
H     0.655000000     5.367000000     2.925000000
H    -0.548000000     6.170000000     3.372000000
O    -1.224000000     4.765000000     8.363000000
H    -0.780000000     5.123000000     9.132000000
H    -0.562000000     4.784000000     7.673000000
O     0.699000000     1.707000000    10.052000000
H     0.580000000     1.807000000     9.107000000
H     0.158000000     0.952000000    10.283000000
O    -1.912000000     1.205000000     3.918000000
H    -2.011000000     1.426000000     2.992000000
H    -0.990000000     1.381000000     4.109000000
O     2.985000000     0.174000000     7.569000000
H     2.602000000     0.054000000     6.700000000
H     2.819000000    -0.653000000     8.021000000
O    -4.330000000     1.749000000     5.377000000
H    -3.635000000     1.796000000     4.721000000
H    -3.887000000     1.925000000     6.207000000
O     2.742000000     7.381000000     3.977000000
H     1.921000000     6.900000000     3.880000000
H     3.349000000     6.745000000     4.356000000
O     0.943000000     9.607000000     2.629000000
H     1.750000000     9.792000000     3.109000000
H     0.797000000     8.670000000     2.759000000
O     0.032000000    -1.964000000     7.922000000
H    -0.423000000    -1.373000000     7.322000000
H    -0.089000000    -2.833000000     7.540000000
O     0.197000000     4.983000000     6.136000000
H     0.057000000     5.618000000     5.433000000
H     1.042000000     4.582000000     5.932000000
