215
-1448.09290
C    -0.289000000     5.233000000    -0.007000000
H    -1.224000000     5.285000000    -0.559000000
C     0.767000000     4.511000000    -0.521000000
C     1.987000000     4.565000000     0.185000000
H     2.809000000     3.959000000    -0.186000000
C     0.705000000     3.708000000    -1.821000000
O    -0.389000000     4.090000000    -2.619000000
H     0.562000000     2.667000000    -1.495000000
O     1.933000000     3.678000000    -2.574000000
C     2.385000000     2.474000000    -3.123000000
C     3.491000000     1.939000000    -2.477000000
H     4.002000000     2.410000000    -1.641000000
C     3.798000000     0.665000000    -2.817000000
O     4.733000000    -0.043000000    -2.194000000
C     3.056000000    -0.040000000    -3.753000000
C     3.392000000    -1.493000000    -4.086000000
H     3.280000000    -1.756000000    -5.140000000
C     2.606000000    -2.459000000    -3.225000000
C     1.407000000    -3.105000000    -3.603000000
H     1.012000000    -2.946000000    -4.603000000
H     4.429000000    -1.771000000    -3.890000000
C     2.139000000     0.629000000    -4.548000000
H     1.585000000     0.101000000    -5.320000000
C     1.761000000     1.894000000    -4.205000000
C     0.542000000     2.503000000    -4.943000000
H     0.563000000     2.135000000    -5.970000000
H     0.771000000     3.570000000    -5.000000000
C    -0.827000000     2.323000000    -4.277000000
C    -1.695000000     1.292000000    -4.697000000
H    -1.516000000     0.748000000    -5.621000000
C    -1.203000000     3.097000000    -3.147000000
C    -2.410000000     2.831000000    -2.525000000
H    -2.802000000     3.462000000    -1.732000000
C    -3.136000000     1.693000000    -2.902000000
O    -4.237000000     1.427000000    -2.076000000
C    -4.193000000     0.377000000    -1.157000000
C    -4.962000000     0.726000000     0.108000000
C    -5.472000000    -0.292000000     0.910000000
H    -5.575000000    -1.290000000     0.492000000
C    -4.751000000     1.976000000     0.685000000
H    -4.134000000     2.699000000     0.157000000
O    -4.806000000    -0.816000000    -1.736000000
H    -3.129000000     0.211000000    -0.930000000
C    -2.750000000     0.887000000    -3.984000000
C    -3.613000000    -0.339000000    -4.332000000
H    -3.391000000    -0.518000000    -5.386000000
H    -4.668000000    -0.066000000    -4.259000000
C    -3.308000000    -1.580000000    -3.479000000
C    -2.312000000    -2.499000000    -3.792000000
H    -1.841000000    -2.490000000    -4.772000000
C    -3.962000000    -1.805000000    -2.201000000
C    -3.581000000    -2.853000000    -1.309000000
H    -3.981000000    -3.018000000    -0.312000000
C    -2.527000000    -3.720000000    -1.676000000
O    -1.933000000    -4.435000000    -0.631000000
C    -0.726000000    -4.062000000     0.048000000
C    -0.823000000    -4.162000000     1.571000000
C    -2.074000000    -4.294000000     2.160000000
H    -2.919000000    -4.301000000     1.477000000
C     0.281000000    -3.996000000     2.343000000
H     1.261000000    -3.909000000     1.880000000
O     0.400000000    -4.882000000    -0.509000000
H    -0.537000000    -2.983000000    -0.055000000
C    -1.916000000    -3.563000000    -2.958000000
C    -0.687000000    -4.462000000    -3.306000000
H    -0.558000000    -4.708000000    -4.362000000
H    -0.870000000    -5.436000000    -2.847000000
C     0.630000000    -3.837000000    -2.744000000
C     1.158000000    -4.198000000    -1.466000000
C     2.432000000    -3.666000000    -1.151000000
H     2.897000000    -3.995000000    -0.225000000
C     3.164000000    -2.795000000    -1.967000000
O     4.252000000    -2.240000000    -1.366000000
C     4.319000000    -0.845000000    -1.052000000
H     3.295000000    -0.581000000    -0.747000000
C     5.196000000    -0.629000000     0.165000000
C     5.825000000     0.621000000     0.457000000
H     5.850000000     1.464000000    -0.229000000
C     5.084000000    -1.534000000     1.229000000
H     4.427000000    -2.399000000     1.190000000
C     5.858000000    -1.410000000     2.354000000
O     5.823000000    -2.409000000     3.373000000
C     6.533000000    -0.205000000     2.588000000
H     7.057000000    -0.101000000     3.535000000
C     6.490000000     0.810000000     1.633000000
O     6.956000000     2.001000000     2.064000000
C     6.356000000     3.252000000     1.667000000
C     5.143000000     3.597000000     2.159000000
H     4.629000000     2.893000000     2.808000000
C     6.984000000     4.027000000     0.700000000
H     7.964000000     3.767000000     0.309000000
C     6.394000000     5.171000000     0.154000000
H     6.899000000     5.765000000    -0.603000000
C     5.143000000     5.570000000     0.754000000
H     4.725000000     6.557000000     0.569000000
C     4.528000000     4.765000000     1.742000000
O     3.213000000     5.000000000     2.228000000
C     2.058000000     5.122000000     1.485000000
C     0.886000000     5.593000000     2.060000000
H     0.890000000     6.009000000     3.064000000
C    -0.284000000     5.731000000     1.294000000
O    -1.312000000     6.365000000     1.948000000
C    -2.664000000     6.073000000     1.704000000
C    -3.208000000     4.847000000     2.107000000
H    -2.594000000     4.162000000     2.686000000
C    -3.506000000     6.996000000     1.063000000
H    -3.109000000     7.976000000     0.810000000
C    -4.862000000     6.714000000     0.792000000
H    -5.562000000     7.433000000     0.374000000
C    -5.342000000     5.515000000     1.315000000
H    -6.410000000     5.320000000     1.348000000
C    -4.546000000     4.549000000     1.900000000
O    -5.103000000     3.456000000     2.615000000
C    -5.231000000     2.234000000     2.009000000
C    -5.842000000     1.170000000     2.723000000
H    -6.316000000     1.403000000     3.673000000
C    -5.965000000    -0.080000000     2.186000000
O    -6.549000000    -1.123000000     2.858000000
C    -6.120000000    -2.416000000     2.941000000
C    -5.006000000    -2.740000000     3.699000000
H    -4.508000000    -1.929000000     4.224000000
C    -6.943000000    -3.342000000     2.341000000
H    -7.817000000    -3.084000000     1.749000000
C    -6.408000000    -4.596000000     2.170000000
H    -6.978000000    -5.428000000     1.764000000
C    -5.204000000    -4.909000000     2.768000000
H    -4.894000000    -5.947000000     2.671000000
C    -4.494000000    -4.030000000     3.560000000
O    -3.359000000    -4.421000000     4.161000000
C    -2.164000000    -4.384000000     3.516000000
C    -1.006000000    -4.158000000     4.317000000
H    -1.157000000    -4.245000000     5.390000000
C     0.224000000    -3.906000000     3.714000000
O     1.381000000    -3.726000000     4.451000000
C     2.624000000    -4.070000000     4.043000000
C     2.935000000    -5.459000000     3.802000000
H     2.253000000    -6.240000000     4.128000000
C     4.259000000    -5.725000000     3.340000000
H     4.537000000    -6.747000000     3.099000000
C     5.219000000    -4.670000000     3.114000000
H     6.244000000    -4.883000000     2.824000000
C     4.864000000    -3.368000000     3.400000000
C     3.549000000    -3.060000000     3.813000000
H     3.320000000    -2.034000000     4.090000000
C     1.549000000    -0.267000000     1.854000000
H     2.163000000    -0.741000000     2.615000000
C     1.408000000    -0.984000000     0.735000000
H     2.029000000    -1.866000000     0.603000000
C     0.611000000    -0.537000000    -0.194000000
H     0.621000000    -1.122000000    -1.104000000
C    -0.099000000     0.680000000    -0.045000000
H    -0.727000000     1.057000000    -0.848000000
C    -0.014000000     1.410000000     1.186000000
H    -0.501000000     2.380000000     1.241000000
C     0.803000000     0.852000000     2.180000000
C     0.893000000     1.544000000     3.489000000
O     0.296000000     2.582000000     3.697000000
O     1.444000000     0.989000000     4.470000000
O    -2.223000000    -1.063000000     2.348000000
H    -2.571000000    -1.947000000     2.232000000
H    -1.655000000    -0.927000000     1.590000000
O     2.306000000    -0.389000000     7.865000000
H     1.900000000    -1.210000000     7.587000000
H     2.298000000    -0.430000000     8.822000000
O     1.438000000    -2.922000000     6.980000000
H     0.816000000    -3.441000000     7.490000000
H     1.616000000    -3.455000000     6.205000000
O     2.251000000     7.602000000     5.428000000
H     1.834000000     6.788000000     5.708000000
H     3.048000000     7.321000000     4.980000000
O     3.734000000     0.639000000     5.565000000
H     3.227000000     0.175000000     6.232000000
H     3.087000000     0.891000000     4.906000000
O     0.747000000     1.885000000     8.998000000
H     0.617000000     2.349000000     8.171000000
H     1.274000000     1.121000000     8.764000000
O     6.311000000     1.574000000     5.430000000
H     6.104000000     2.505000000     5.352000000
H     5.458000000     1.139000000     5.445000000
O     1.913000000     4.769000000     5.234000000
H     1.589000000     4.381000000     4.422000000
H     2.497000000     4.104000000     5.601000000
O    -0.254000000     5.836000000     7.147000000
H    -0.617000000     5.227000000     7.790000000
H     0.422000000     5.331000000     6.694000000
O    -2.020000000     2.766000000     4.776000000
H    -1.193000000     2.640000000     4.311000000
H    -2.508000000     1.957000000     4.619000000
O     0.067000000     2.444000000     6.477000000
H    -0.768000000     2.662000000     6.062000000
H     0.688000000     2.390000000     5.750000000
O     5.693000000     4.667000000     5.550000000
H     5.136000000     5.299000000     5.096000000
H     6.364000000     5.201000000     5.975000000
O    -0.981000000     4.204000000     9.389000000
H    -0.825000000     4.390000000    10.315000000
H    -0.407000000     3.464000000     9.193000000
O     5.245000000    -0.790000000     8.106000000
H     5.628000000     0.065000000     8.300000000
H     4.425000000    -0.589000000     7.656000000
O     3.985000000     3.504000000     7.160000000
H     3.927000000     2.572000000     6.952000000
H     4.714000000     3.824000000     6.629000000
O    -2.441000000     5.651000000     5.417000000
H    -2.329000000     4.724000000     5.206000000
H    -1.707000000     5.855000000     5.996000000
O    -0.015000000    -0.828000000     5.661000000
H     0.475000000    -0.080000000     5.320000000
H     0.580000000    -1.571000000     5.560000000
O    -2.793000000     0.014000000     4.774000000
H    -1.900000000    -0.174000000     5.064000000
H    -2.804000000    -0.240000000     3.852000000
O    -1.470000000    -0.963000000     8.490000000
H    -1.151000000    -0.726000000     7.619000000
H    -2.266000000    -1.468000000     8.324000000
