215
-1444.55749
C    -0.779000000     5.144000000    -0.525000000
H    -1.776000000     4.751000000    -0.711000000
C     0.374000000     4.647000000    -1.157000000
C     1.653000000     5.090000000    -0.817000000
H     2.528000000     4.850000000    -1.416000000
C     0.270000000     3.651000000    -2.301000000
O    -0.960000000     3.866000000    -2.946000000
H     0.314000000     2.710000000    -1.732000000
O     1.341000000     3.721000000    -3.284000000
C     1.927000000     2.500000000    -3.693000000
C     2.932000000     1.956000000    -2.912000000
H     3.304000000     2.507000000    -2.052000000
C     3.398000000     0.714000000    -3.114000000
O     4.379000000     0.267000000    -2.270000000
C     2.769000000    -0.108000000    -4.068000000
C     3.221000000    -1.590000000    -4.286000000
H     2.824000000    -1.860000000    -5.267000000
C     2.644000000    -2.507000000    -3.188000000
C     1.571000000    -3.338000000    -3.517000000
H     1.288000000    -3.377000000    -4.566000000
H     4.297000000    -1.697000000    -4.137000000
C     1.707000000     0.389000000    -4.774000000
H     1.231000000    -0.291000000    -5.475000000
C     1.213000000     1.657000000    -4.634000000
C    -0.067000000     2.095000000    -5.322000000
H    -0.179000000     1.519000000    -6.244000000
H    -0.037000000     3.172000000    -5.497000000
C    -1.281000000     1.920000000    -4.390000000
C    -1.942000000     0.727000000    -4.545000000
H    -1.566000000     0.085000000    -5.337000000
C    -1.674000000     2.856000000    -3.440000000
C    -2.765000000     2.484000000    -2.588000000
H    -3.171000000     3.139000000    -1.821000000
C    -3.361000000     1.230000000    -2.677000000
O    -4.348000000     0.979000000    -1.747000000
C    -4.114000000     0.006000000    -0.747000000
C    -4.712000000     0.454000000     0.566000000
C    -5.055000000    -0.541000000     1.505000000
H    -4.916000000    -1.614000000     1.397000000
C    -4.910000000     1.770000000     0.921000000
H    -4.538000000     2.507000000     0.213000000
O    -4.451000000    -1.360000000    -1.064000000
H    -3.042000000     0.106000000    -0.521000000
C    -3.028000000     0.375000000    -3.751000000
C    -3.666000000    -0.993000000    -3.952000000
H    -3.563000000    -1.391000000    -4.964000000
H    -4.754000000    -0.963000000    -3.859000000
C    -3.083000000    -2.073000000    -2.939000000
C    -2.119000000    -2.977000000    -3.425000000
H    -1.714000000    -2.859000000    -4.427000000
C    -3.506000000    -2.216000000    -1.632000000
C    -3.036000000    -3.217000000    -0.821000000
H    -3.356000000    -3.313000000     0.213000000
C    -2.168000000    -4.138000000    -1.245000000
O    -1.533000000    -4.865000000    -0.270000000
C    -0.349000000    -4.207000000     0.375000000
C    -0.305000000    -4.271000000     1.889000000
C    -1.450000000    -4.677000000     2.610000000
H    -2.394000000    -4.949000000     2.144000000
C     0.812000000    -3.927000000     2.659000000
H     1.734000000    -3.605000000     2.182000000
O     0.858000000    -4.794000000    -0.199000000
H    -0.418000000    -3.134000000     0.142000000
C    -1.650000000    -3.958000000    -2.550000000
C    -0.441000000    -4.806000000    -2.899000000
H    -0.426000000    -5.163000000    -3.930000000
H    -0.499000000    -5.788000000    -2.426000000
C     0.883000000    -4.099000000    -2.571000000
C     1.451000000    -4.138000000    -1.279000000
C     2.593000000    -3.407000000    -1.003000000
H     3.008000000    -3.276000000    -0.006000000
C     3.245000000    -2.700000000    -1.969000000
O     4.271000000    -1.935000000    -1.578000000
C     3.928000000    -0.608000000    -1.173000000
H     2.887000000    -0.489000000    -0.836000000
C     4.655000000    -0.161000000     0.151000000
C     5.054000000     1.161000000     0.367000000
H     4.876000000     1.899000000    -0.411000000
C     4.966000000    -1.171000000     1.026000000
H     4.817000000    -2.237000000     0.869000000
C     5.589000000    -0.823000000     2.221000000
O     6.033000000    -1.772000000     3.139000000
C     6.069000000     0.493000000     2.428000000
H     6.388000000     0.706000000     3.445000000
C     5.721000000     1.536000000     1.569000000
O     6.057000000     2.813000000     1.862000000
C     5.728000000     3.888000000     1.101000000
C     4.470000000     4.458000000     1.240000000
H     3.737000000     4.071000000     1.944000000
C     6.719000000     4.500000000     0.368000000
H     7.737000000     4.123000000     0.409000000
C     6.437000000     5.706000000    -0.281000000
H     7.153000000     6.333000000    -0.805000000
C     5.195000000     6.229000000    -0.259000000
H     5.015000000     7.117000000    -0.860000000
C     4.192000000     5.642000000     0.559000000
O     3.102000000     6.403000000     0.670000000
C     1.789000000     5.918000000     0.289000000
C     0.680000000     6.354000000     0.977000000
H     0.692000000     7.107000000     1.760000000
C    -0.592000000     5.870000000     0.619000000
O    -1.695000000     6.454000000     1.256000000
C    -2.962000000     5.927000000     1.128000000
C    -3.446000000     4.949000000     1.963000000
H    -2.786000000     4.502000000     2.702000000
C    -3.780000000     6.387000000     0.081000000
H    -3.345000000     7.085000000    -0.629000000
C    -5.181000000     6.121000000     0.130000000
H    -5.870000000     6.485000000    -0.628000000
C    -5.639000000     5.094000000     1.007000000
H    -6.685000000     4.799000000     1.049000000
C    -4.733000000     4.488000000     1.864000000
O    -5.191000000     3.445000000     2.670000000
C    -5.266000000     2.107000000     2.261000000
C    -5.685000000     1.093000000     3.148000000
H    -5.971000000     1.373000000     4.159000000
C    -5.497000000    -0.223000000     2.805000000
O    -5.689000000    -1.097000000     3.830000000
C    -5.400000000    -2.470000000     3.752000000
C    -4.205000000    -2.943000000     4.202000000
H    -3.463000000    -2.212000000     4.515000000
C    -6.437000000    -3.394000000     3.436000000
H    -7.428000000    -3.026000000     3.181000000
C    -6.223000000    -4.770000000     3.508000000
H    -6.949000000    -5.488000000     3.136000000
C    -4.916000000    -5.256000000     3.822000000
H    -4.668000000    -6.311000000     3.747000000
C    -3.913000000    -4.309000000     4.219000000
O    -2.714000000    -4.789000000     4.650000000
C    -1.509000000    -4.530000000     4.027000000
C    -0.382000000    -4.222000000     4.741000000
H    -0.561000000    -4.350000000     5.806000000
C     0.814000000    -3.927000000     4.064000000
O     1.910000000    -3.571000000     4.827000000
C     3.224000000    -3.791000000     4.379000000
C     3.646000000    -5.047000000     4.063000000
H     3.049000000    -5.955000000     4.098000000
C     4.915000000    -5.269000000     3.496000000
H     5.219000000    -6.305000000     3.371000000
C     5.714000000    -4.201000000     3.183000000
H     6.720000000    -4.320000000     2.788000000
C     5.312000000    -2.884000000     3.434000000
C     3.974000000    -2.740000000     3.926000000
H     3.643000000    -1.720000000     4.105000000
C     1.120000000     0.031000000     1.660000000
H     2.083000000    -0.372000000     1.964000000
C     0.497000000    -0.461000000     0.533000000
H     0.754000000    -1.415000000     0.079000000
C    -0.595000000     0.184000000    -0.048000000
H    -0.967000000    -0.262000000    -0.922000000
C    -0.984000000     1.346000000     0.512000000
H    -1.735000000     1.966000000     0.030000000
C    -0.387000000     1.851000000     1.676000000
H    -0.800000000     2.775000000     2.072000000
C     0.614000000     1.178000000     2.319000000
C     1.137000000     1.824000000     3.589000000
O     0.597000000     2.793000000     4.025000000
O     2.035000000     1.272000000     4.202000000
O    -1.414000000    -0.676000000     3.978000000
H    -0.555000000    -0.800000000     4.382000000
H    -1.229000000    -0.594000000     3.042000000
O     1.546000000    -0.005000000     8.364000000
H     1.189000000    -0.884000000     8.237000000
H     1.361000000     0.199000000     9.281000000
O     0.872000000    -2.768000000     7.985000000
H     0.296000000    -3.266000000     8.566000000
H     1.188000000    -3.412000000     7.351000000
O     2.959000000     7.212000000     6.046000000
H     2.521000000     6.376000000     5.889000000
H     3.787000000     7.141000000     5.573000000
O     4.168000000     1.572000000     5.645000000
H     3.980000000     0.931000000     6.331000000
H     3.384000000     1.574000000     5.097000000
O     0.772000000     3.338000000     9.239000000
H     0.842000000     3.211000000     8.293000000
H    -0.012000000     2.850000000     9.489000000
O    -1.757000000    -1.611000000     6.784000000
H    -0.853000000    -1.388000000     6.563000000
H    -2.286000000    -1.113000000     6.161000000
O     7.162000000     1.343000000     6.388000000
H     7.280000000     2.271000000     6.181000000
H     6.243000000     1.168000000     6.186000000
O     1.288000000     5.072000000     5.541000000
H     1.027000000     4.612000000     4.743000000
H     1.537000000     4.375000000     6.148000000
O     0.550000000     6.301000000     9.278000000
H     1.467000000     6.577000000     9.276000000
H     0.580000000     5.371000000     9.051000000
O    -1.286000000     6.249000000     5.450000000
H    -0.424000000     5.983000000     5.769000000
H    -1.803000000     5.444000000     5.456000000
O     1.207000000     2.586000000     6.747000000
H     1.350000000     1.779000000     7.242000000
H     1.161000000     2.302000000     5.834000000
O    -3.964000000     3.847000000     6.441000000
H    -3.705000000     4.122000000     7.321000000
H    -3.139000000     3.765000000     5.963000000
O    -3.704000000     0.253000000     6.101000000
H    -3.160000000     0.434000000     5.335000000
H    -4.520000000    -0.094000000     5.739000000
O     4.305000000    -0.277000000     8.075000000
H     4.752000000     0.208000000     8.770000000
H     3.378000000    -0.231000000     8.309000000
O     4.278000000     3.540000000     8.266000000
H     3.496000000     3.058000000     8.537000000
H     4.513000000     3.160000000     7.420000000
O     0.746000000    -0.446000000     5.674000000
H     1.234000000     0.164000000     5.122000000
H     1.419000000    -0.917000000     6.165000000
O    -1.513000000     3.114000000     5.501000000
H    -1.241000000     2.613000000     6.270000000
H    -0.769000000     3.056000000     4.902000000
O    -0.903000000     8.907000000     4.844000000
H    -0.294000000     8.962000000     5.581000000
H    -1.170000000     7.988000000     4.823000000
