215
-1471.96682
C    -1.129000000     4.956000000    -0.248000000
H    -2.044000000     4.626000000    -0.732000000
C     0.070000000     4.500000000    -0.837000000
C     1.294000000     4.898000000    -0.282000000
H     2.235000000     4.523000000    -0.675000000
C     0.053000000     3.597000000    -2.023000000
O    -0.924000000     3.884000000    -2.953000000
H    -0.163000000     2.575000000    -1.678000000
O     1.275000000     3.633000000    -2.797000000
C     1.791000000     2.455000000    -3.140000000
C     2.850000000     1.997000000    -2.442000000
H     3.328000000     2.628000000    -1.698000000
C     3.456000000     0.764000000    -2.718000000
O     4.487000000     0.463000000    -1.932000000
C     2.969000000     0.040000000    -3.788000000
C     3.590000000    -1.276000000    -4.173000000
H     3.206000000    -1.515000000    -5.167000000
C     3.078000000    -2.366000000    -3.244000000
C     1.954000000    -3.046000000    -3.701000000
H     1.702000000    -2.975000000    -4.756000000
H     4.677000000    -1.254000000    -4.265000000
C     1.808000000     0.478000000    -4.497000000
H     1.262000000    -0.118000000    -5.225000000
C     1.244000000     1.671000000    -4.186000000
C     0.101000000     2.226000000    -5.019000000
H     0.106000000     1.873000000    -6.052000000
H     0.138000000     3.315000000    -5.085000000
C    -1.236000000     1.924000000    -4.352000000
C    -1.851000000     0.759000000    -4.570000000
H    -1.394000000     0.087000000    -5.293000000
C    -1.662000000     2.777000000    -3.367000000
C    -2.824000000     2.482000000    -2.583000000
H    -3.124000000     3.020000000    -1.687000000
C    -3.442000000     1.253000000    -2.838000000
O    -4.501000000     0.775000000    -2.031000000
C    -4.360000000    -0.192000000    -1.004000000
C    -5.096000000     0.213000000     0.272000000
C    -5.567000000    -0.826000000     1.083000000
H    -5.484000000    -1.867000000     0.784000000
C    -5.097000000     1.541000000     0.723000000
H    -4.686000000     2.320000000     0.086000000
O    -4.678000000    -1.532000000    -1.467000000
H    -3.272000000    -0.215000000    -0.843000000
C    -2.991000000     0.417000000    -3.875000000
C    -3.564000000    -0.943000000    -4.100000000
H    -3.350000000    -1.278000000    -5.117000000
H    -4.632000000    -0.904000000    -3.874000000
C    -3.008000000    -2.012000000    -3.241000000
C    -1.778000000    -2.633000000    -3.596000000
H    -1.493000000    -2.497000000    -4.636000000
C    -3.612000000    -2.271000000    -2.003000000
C    -2.998000000    -3.110000000    -1.141000000
H    -3.526000000    -3.223000000    -0.198000000
C    -1.869000000    -3.810000000    -1.511000000
O    -1.278000000    -4.470000000    -0.435000000
C    -0.098000000    -3.900000000     0.106000000
C    -0.101000000    -4.126000000     1.624000000
C    -1.229000000    -3.701000000     2.379000000
H    -2.169000000    -3.387000000     1.932000000
C     1.081000000    -4.337000000     2.341000000
H     1.950000000    -4.658000000     1.773000000
O     1.067000000    -4.603000000    -0.481000000
H    -0.136000000    -2.830000000    -0.148000000
C    -1.257000000    -3.613000000    -2.782000000
C    -0.115000000    -4.436000000    -3.242000000
H    -0.083000000    -4.387000000    -4.333000000
H    -0.171000000    -5.472000000    -2.904000000
C     1.195000000    -3.812000000    -2.820000000
C     1.696000000    -3.923000000    -1.478000000
C     2.891000000    -3.385000000    -1.075000000
H     3.206000000    -3.589000000    -0.055000000
C     3.603000000    -2.551000000    -1.923000000
O     4.680000000    -1.726000000    -1.465000000
C     4.256000000    -0.470000000    -0.927000000
H     3.207000000    -0.404000000    -0.602000000
C     5.043000000    -0.095000000     0.296000000
C     5.240000000     1.279000000     0.676000000
H     4.986000000     2.024000000    -0.074000000
C     5.289000000    -1.123000000     1.219000000
H     5.119000000    -2.178000000     1.020000000
C     5.699000000    -0.723000000     2.501000000
O     5.975000000    -1.712000000     3.408000000
C     5.796000000     0.597000000     2.892000000
H     6.051000000     0.734000000     3.940000000
C     5.555000000     1.621000000     1.990000000
O     5.892000000     2.936000000     2.283000000
C     5.489000000     4.027000000     1.571000000
C     4.217000000     4.528000000     1.889000000
H     3.579000000     3.982000000     2.580000000
C     6.394000000     4.656000000     0.667000000
H     7.423000000     4.326000000     0.554000000
C     5.885000000     5.775000000    -0.031000000
H     6.532000000     6.156000000    -0.816000000
C     4.583000000     6.264000000     0.194000000
H     4.199000000     7.035000000    -0.470000000
C     3.718000000     5.628000000     1.140000000
O     2.504000000     6.168000000     1.499000000
C     1.321000000     5.718000000     0.898000000
C     0.144000000     6.173000000     1.375000000
H     0.142000000     6.694000000     2.330000000
C    -1.098000000     5.736000000     0.916000000
O    -2.229000000     6.127000000     1.551000000
C    -3.464000000     5.721000000     1.173000000
C    -4.052000000     4.823000000     2.079000000
H    -3.508000000     4.384000000     2.911000000
C    -4.156000000     6.233000000     0.115000000
H    -3.706000000     6.984000000    -0.529000000
C    -5.434000000     5.747000000    -0.217000000
H    -5.976000000     5.982000000    -1.129000000
C    -5.942000000     4.745000000     0.620000000
H    -6.913000000     4.293000000     0.437000000
C    -5.267000000     4.249000000     1.743000000
O    -5.830000000     3.171000000     2.354000000
C    -5.715000000     1.825000000     1.943000000
C    -6.293000000     0.801000000     2.732000000
H    -6.939000000     1.077000000     3.561000000
C    -6.157000000    -0.544000000     2.312000000
O    -6.586000000    -1.594000000     3.164000000
C    -5.783000000    -2.690000000     3.450000000
C    -4.383000000    -2.558000000     3.725000000
H    -4.033000000    -1.532000000     3.806000000
C    -6.414000000    -3.939000000     3.529000000
H    -7.466000000    -4.107000000     3.312000000
C    -5.626000000    -5.028000000     3.980000000
H    -6.070000000    -6.011000000     4.118000000
C    -4.253000000    -4.908000000     4.252000000
H    -3.600000000    -5.725000000     4.547000000
C    -3.583000000    -3.713000000     4.021000000
O    -2.325000000    -3.557000000     4.552000000
C    -1.200000000    -3.732000000     3.788000000
C    -0.043000000    -4.162000000     4.476000000
H    -0.024000000    -4.301000000     5.554000000
C     1.145000000    -4.359000000     3.751000000
O     2.318000000    -4.705000000     4.401000000
C     3.604000000    -4.407000000     3.910000000
C     4.376000000    -5.521000000     3.533000000
H     4.000000000    -6.528000000     3.692000000
C     5.666000000    -5.300000000     2.948000000
H     6.245000000    -6.149000000     2.595000000
C     6.189000000    -4.038000000     2.927000000
H     7.184000000    -3.905000000     2.512000000
C     5.371000000    -2.928000000     3.359000000
C     4.133000000    -3.153000000     3.926000000
H     3.559000000    -2.310000000     4.303000000
C     1.477000000     1.064000000     2.628000000
H     2.290000000     0.715000000     3.260000000
C     1.145000000     0.294000000     1.518000000
H     1.812000000    -0.514000000     1.228000000
C     0.112000000     0.660000000     0.654000000
H    -0.135000000     0.136000000    -0.256000000
C    -0.636000000     1.735000000     0.943000000
H    -1.575000000     1.944000000     0.436000000
C    -0.474000000     2.342000000     2.185000000
H    -1.200000000     3.106000000     2.452000000
C     0.613000000     2.061000000     3.005000000
C     0.792000000     2.717000000     4.398000000
O    -0.027000000     3.513000000     4.872000000
O     1.549000000     2.177000000     5.165000000
O    -1.900000000    -0.711000000     2.794000000
H    -1.150000000    -0.798000000     3.383000000
H    -1.536000000    -0.326000000     1.997000000
O     3.171000000     6.935000000     4.643000000
H     3.177000000     6.573000000     3.757000000
H     4.007000000     6.663000000     5.019000000
O     3.417000000     3.930000000     6.442000000
H     2.638000000     3.489000000     6.102000000
H     3.289000000     3.945000000     7.390000000
O     1.666000000     0.806000000     9.685000000
H     1.155000000     0.953000000     8.890000000
H     2.237000000     0.069000000     9.470000000
O    -2.124000000    -0.394000000     6.844000000
H    -1.340000000    -0.782000000     6.456000000
H    -1.790000000     0.213000000     7.504000000
O     5.682000000     4.529000000     5.141000000
H     6.068000000     5.054000000     5.842000000
H     4.819000000     4.283000000     5.473000000
O    -1.182000000     5.994000000     4.622000000
H    -0.704000000     5.188000000     4.428000000
H    -0.772000000     6.329000000     5.419000000
O    -0.889000000     4.269000000     8.757000000
H    -0.642000000     4.011000000     9.645000000
H    -1.740000000     4.695000000     8.860000000
O     3.319000000     0.381000000     5.596000000
H     2.713000000    -0.304000000     5.878000000
H     2.754000000     1.088000000     5.286000000
O    -2.300000000     8.111000000     3.423000000
H    -1.561000000     8.519000000     2.972000000
H    -2.045000000     7.194000000     3.521000000
O    -4.117000000     5.640000000     5.619000000
H    -3.718000000     6.493000000     5.447000000
H    -3.386000000     5.023000000     5.585000000
O     0.554000000     1.969000000     7.608000000
H     1.025000000     1.987000000     6.775000000
H     0.076000000     2.798000000     7.630000000
O     1.069000000     7.677000000     8.131000000
H     0.883000000     6.925000000     7.569000000
H     1.852000000     8.074000000     7.749000000
O    -3.001000000     1.713000000     8.420000000
H    -2.758000000     2.528000000     7.981000000
H    -3.564000000     1.261000000     7.791000000
O     2.702000000     3.592000000     9.559000000
H     1.946000000     3.090000000     9.254000000
H     3.207000000     2.970000000    10.083000000
O    -3.353000000     1.226000000     4.617000000
H    -3.152000000     0.738000000     3.819000000
H    -2.843000000     0.789000000     5.299000000
O     0.647000000     5.455000000     6.888000000
H     0.018000000     4.979000000     7.430000000
H     0.816000000     4.871000000     6.148000000
O     0.046000000    -0.608000000     5.229000000
H     0.247000000     0.285000000     5.511000000
H     0.502000000    -1.166000000     5.859000000
O    -2.453000000     3.285000000     6.039000000
H    -2.810000000     2.547000000     5.545000000
H    -1.565000000     3.393000000     5.699000000
