215
-1452.40389
C    -0.895000000     5.440000000    -1.430000000
H    -1.704000000     5.173000000    -2.105000000
C     0.324000000     4.734000000    -1.388000000
C     1.229000000     4.952000000    -0.406000000
H     2.200000000     4.469000000    -0.482000000
C     0.556000000     3.597000000    -2.400000000
O    -0.291000000     3.673000000    -3.543000000
H     0.360000000     2.714000000    -1.774000000
O     1.936000000     3.604000000    -2.886000000
C     2.543000000     2.397000000    -3.101000000
C     3.645000000     2.129000000    -2.279000000
H     4.024000000     2.788000000    -1.502000000
C     4.230000000     0.879000000    -2.305000000
O     4.897000000     0.553000000    -1.165000000
C     3.723000000    -0.091000000    -3.213000000
C     4.346000000    -1.459000000    -3.211000000
H     4.524000000    -1.863000000    -4.210000000
C     3.436000000    -2.331000000    -2.430000000
C     2.483000000    -3.195000000    -3.036000000
H     2.333000000    -3.109000000    -4.109000000
H     5.352000000    -1.398000000    -2.791000000
C     2.833000000     0.265000000    -4.227000000
H     2.538000000    -0.416000000    -5.021000000
C     2.122000000     1.471000000    -4.093000000
C     1.096000000     1.785000000    -5.166000000
H     1.296000000     1.137000000    -6.022000000
H     1.217000000     2.798000000    -5.556000000
C    -0.271000000     1.545000000    -4.646000000
C    -0.858000000     0.315000000    -4.967000000
H    -0.344000000    -0.420000000    -5.581000000
C    -0.902000000     2.479000000    -3.883000000
C    -2.151000000     2.157000000    -3.402000000
H    -2.703000000     2.898000000    -2.830000000
C    -2.756000000     0.955000000    -3.639000000
O    -3.808000000     0.635000000    -2.819000000
C    -3.572000000    -0.205000000    -1.594000000
C    -4.265000000     0.253000000    -0.355000000
C    -4.852000000    -0.699000000     0.516000000
H    -4.959000000    -1.705000000     0.119000000
C    -4.097000000     1.573000000    -0.049000000
H    -3.625000000     2.383000000    -0.599000000
O    -3.996000000    -1.564000000    -1.973000000
H    -2.484000000    -0.161000000    -1.435000000
C    -2.119000000     0.053000000    -4.443000000
C    -2.725000000    -1.303000000    -4.682000000
H    -2.497000000    -1.677000000    -5.682000000
H    -3.816000000    -1.295000000    -4.649000000
C    -2.310000000    -2.326000000    -3.631000000
C    -1.197000000    -3.154000000    -3.850000000
H    -0.554000000    -3.144000000    -4.727000000
C    -2.980000000    -2.405000000    -2.345000000
C    -2.487000000    -3.253000000    -1.360000000
H    -3.022000000    -3.172000000    -0.417000000
C    -1.490000000    -4.117000000    -1.666000000
O    -1.102000000    -4.914000000    -0.631000000
C    -0.156000000    -4.294000000     0.282000000
C    -0.537000000    -4.515000000     1.787000000
C    -1.918000000    -4.556000000     2.150000000
H    -2.646000000    -4.452000000     1.349000000
C     0.436000000    -4.570000000     2.753000000
H     1.472000000    -4.485000000     2.434000000
O     1.190000000    -4.813000000     0.037000000
H    -0.271000000    -3.226000000     0.046000000
C    -0.773000000    -4.081000000    -2.852000000
C     0.549000000    -4.881000000    -2.940000000
H     0.684000000    -5.004000000    -4.016000000
H     0.431000000    -5.911000000    -2.598000000
C     1.718000000    -4.084000000    -2.288000000
C     1.987000000    -4.172000000    -0.896000000
C     3.041000000    -3.468000000    -0.303000000
H     3.331000000    -3.628000000     0.732000000
C     3.743000000    -2.562000000    -1.078000000
O     4.600000000    -1.763000000    -0.382000000
C     4.235000000    -0.330000000    -0.213000000
H     3.140000000    -0.338000000    -0.313000000
C     4.598000000     0.149000000     1.198000000
C     4.861000000     1.471000000     1.512000000
H     5.044000000     2.141000000     0.676000000
C     4.480000000    -0.787000000     2.231000000
H     4.135000000    -1.810000000     2.104000000
C     4.636000000    -0.414000000     3.569000000
O     4.351000000    -1.253000000     4.645000000
C     4.777000000     0.920000000     3.838000000
H     4.697000000     1.302000000     4.852000000
C     5.046000000     1.864000000     2.816000000
O     5.193000000     3.202000000     3.178000000
C     4.788000000     4.161000000     2.282000000
C     3.483000000     4.698000000     2.376000000
H     2.818000000     4.183000000     3.065000000
C     5.764000000     4.797000000     1.496000000
H     6.775000000     4.417000000     1.618000000
C     5.359000000     5.757000000     0.600000000
H     5.959000000     6.348000000    -0.087000000
C     4.048000000     6.160000000     0.637000000
H     3.744000000     6.931000000    -0.066000000
C     3.138000000     5.701000000     1.534000000
O     1.865000000     6.224000000     1.533000000
C     0.978000000     5.959000000     0.542000000
C    -0.196000000     6.712000000     0.566000000
H    -0.464000000     7.381000000     1.380000000
C    -1.086000000     6.498000000    -0.457000000
O    -2.320000000     7.089000000    -0.224000000
C    -3.451000000     6.312000000     0.021000000
C    -3.443000000     5.059000000     0.650000000
H    -2.571000000     4.469000000     0.921000000
C    -4.663000000     6.904000000    -0.376000000
H    -4.712000000     7.874000000    -0.864000000
C    -5.825000000     6.180000000    -0.192000000
H    -6.781000000     6.626000000    -0.455000000
C    -5.749000000     4.901000000     0.322000000
H    -6.721000000     4.414000000     0.300000000
C    -4.591000000     4.351000000     0.839000000
O    -4.628000000     3.242000000     1.601000000
C    -4.592000000     1.947000000     1.189000000
C    -5.035000000     1.040000000     2.134000000
H    -5.361000000     1.321000000     3.132000000
C    -5.118000000    -0.297000000     1.792000000
O    -6.004000000    -0.971000000     2.547000000
C    -5.897000000    -2.291000000     2.693000000
C    -4.705000000    -2.910000000     3.023000000
H    -3.801000000    -2.313000000     3.120000000
C    -7.090000000    -3.066000000     2.535000000
H    -7.969000000    -2.529000000     2.189000000
C    -7.075000000    -4.396000000     2.879000000
H    -7.985000000    -4.973000000     2.734000000
C    -5.852000000    -5.065000000     3.204000000
H    -5.831000000    -6.136000000     3.393000000
C    -4.693000000    -4.276000000     3.329000000
O    -3.581000000    -4.937000000     3.882000000
C    -2.297000000    -4.768000000     3.494000000
C    -1.276000000    -4.964000000     4.433000000
H    -1.540000000    -5.123000000     5.475000000
C     0.093000000    -4.876000000     4.041000000
O     1.080000000    -4.868000000     5.069000000
C     2.388000000    -4.391000000     4.885000000
C     3.334000000    -5.312000000     4.487000000
H     3.078000000    -6.336000000     4.225000000
C     4.700000000    -4.896000000     4.239000000
H     5.432000000    -5.550000000     3.773000000
C     4.967000000    -3.496000000     4.315000000
H     5.958000000    -3.164000000     4.018000000
C     4.017000000    -2.583000000     4.650000000
C     2.710000000    -3.024000000     5.008000000
H     1.987000000    -2.289000000     5.353000000
C     1.126000000     0.138000000     2.449000000
H     1.654000000    -0.242000000     3.320000000
C     1.133000000    -0.540000000     1.263000000
H     1.626000000    -1.499000000     1.122000000
C     0.319000000    -0.107000000     0.193000000
H     0.327000000    -0.602000000    -0.784000000
C    -0.283000000     1.146000000     0.284000000
H    -0.965000000     1.449000000    -0.505000000
C    -0.296000000     1.811000000     1.510000000
H    -0.791000000     2.772000000     1.623000000
C     0.426000000     1.312000000     2.649000000
C     0.523000000     2.086000000     3.920000000
O    -0.041000000     3.185000000     3.972000000
O     0.934000000     1.632000000     4.922000000
O    -1.016000000     1.947000000     6.968000000
H    -1.601000000     2.154000000     6.240000000
H    -0.164000000     1.803000000     6.557000000
O     2.016000000     4.355000000     5.689000000
H     1.372000000     3.843000000     5.199000000
H     2.439000000     4.904000000     5.029000000
O    -3.650000000     1.944000000     8.127000000
H    -3.585000000     1.027000000     8.395000000
H    -2.776000000     2.160000000     7.801000000
O    -3.604000000    -1.625000000     5.689000000
H    -3.053000000    -1.446000000     6.452000000
H    -3.116000000    -1.261000000     4.951000000
O     0.321000000    -0.057000000     9.383000000
H     0.219000000     0.743000000     9.899000000
H     1.046000000    -0.521000000     9.801000000
O     0.615000000     7.605000000     4.559000000
H     1.480000000     7.684000000     4.158000000
H     0.176000000     6.924000000     4.051000000
O    -0.768000000     3.955000000     9.143000000
H    -0.495000000     3.440000000     9.902000000
H    -0.425000000     3.474000000     8.390000000
O    -2.251000000     4.545000000     6.219000000
H    -2.582000000     3.711000000     5.886000000
H    -2.122000000     4.396000000     7.155000000
O     3.430000000     7.335000000     4.542000000
H     4.189000000     7.560000000     4.005000000
H     3.771000000     7.297000000     5.436000000
O     5.554000000     0.963000000     8.341000000
H     4.656000000     1.138000000     8.059000000
H     5.996000000     1.810000000     8.275000000
O    -1.024000000     5.463000000     3.860000000
H    -0.479000000     4.711000000     3.630000000
H    -1.192000000     5.360000000     4.796000000
O     2.007000000    -0.231000000     6.978000000
H     1.426000000    -0.308000000     7.735000000
H     1.483000000     0.226000000     6.320000000
O    -2.874000000     7.539000000     3.656000000
H    -2.470000000     6.717000000     3.378000000
H    -2.790000000     7.537000000     4.609000000
O     3.513000000     2.228000000     6.725000000
H     2.768000000     1.637000000     6.616000000
H     3.198000000     3.072000000     6.402000000
O    -2.267000000    -0.481000000     8.149000000
H    -1.401000000    -0.080000000     8.074000000
H    -2.310000000    -0.791000000     9.053000000
O     5.028000000     4.928000000     5.583000000
H     4.851000000     4.440000000     4.778000000
H     4.240000000     5.454000000     5.722000000
O     3.239000000     5.269000000     8.162000000
H     2.495000000     5.058000000     7.597000000
H     3.537000000     6.126000000     7.855000000
O    -1.821000000    -0.243000000     4.222000000
H    -1.042000000    -0.345000000     3.675000000
H    -2.002000000     0.697000000     4.207000000
O    -2.571000000     2.307000000     4.485000000
H    -3.175000000     2.274000000     3.743000000
H    -1.769000000     2.684000000     4.124000000
