215
-1457.13155
C    -0.609000000     5.460000000    -1.287000000
H    -1.521000000     5.172000000    -1.805000000
C     0.664000000     4.899000000    -1.707000000
C     1.853000000     5.369000000    -1.084000000
H     2.815000000     4.931000000    -1.341000000
C     0.726000000     3.678000000    -2.666000000
O    -0.451000000     3.673000000    -3.590000000
H     0.572000000     2.720000000    -2.149000000
O     1.922000000     3.591000000    -3.397000000
C     2.505000000     2.359000000    -3.562000000
C     3.413000000     1.955000000    -2.565000000
H     3.794000000     2.590000000    -1.769000000
C     3.839000000     0.617000000    -2.500000000
O     4.562000000     0.261000000    -1.439000000
C     3.350000000    -0.304000000    -3.400000000
C     3.918000000    -1.790000000    -3.439000000
H     3.881000000    -2.306000000    -4.400000000
C     3.098000000    -2.687000000    -2.497000000
C     2.036000000    -3.459000000    -2.924000000
H     1.717000000    -3.445000000    -3.963000000
H     4.990000000    -1.787000000    -3.228000000
C     2.463000000     0.070000000    -4.382000000
H     2.101000000    -0.706000000    -5.051000000
C     1.965000000     1.364000000    -4.423000000
C     0.846000000     1.757000000    -5.359000000
H     0.862000000     1.214000000    -6.307000000
H     0.989000000     2.811000000    -5.606000000
C    -0.499000000     1.515000000    -4.704000000
C    -1.097000000     0.283000000    -4.866000000
H    -0.621000000    -0.488000000    -5.466000000
C    -1.104000000     2.501000000    -3.918000000
C    -2.387000000     2.235000000    -3.388000000
H    -2.881000000     2.935000000    -2.718000000
C    -2.998000000     0.986000000    -3.505000000
O    -4.158000000     0.773000000    -2.715000000
C    -4.010000000    -0.298000000    -1.730000000
C    -4.556000000     0.121000000    -0.326000000
C    -5.098000000    -0.721000000     0.601000000
H    -5.408000000    -1.698000000     0.240000000
C    -4.161000000     1.410000000     0.032000000
H    -3.440000000     1.912000000    -0.608000000
O    -4.509000000    -1.572000000    -2.287000000
H    -2.969000000    -0.403000000    -1.391000000
C    -2.352000000    -0.028000000    -4.296000000
C    -2.987000000    -1.347000000    -4.607000000
H    -2.775000000    -1.786000000    -5.584000000
H    -4.062000000    -1.180000000    -4.700000000
C    -2.621000000    -2.367000000    -3.567000000
C    -1.508000000    -3.190000000    -3.607000000
H    -0.896000000    -3.139000000    -4.504000000
C    -3.492000000    -2.491000000    -2.449000000
C    -3.244000000    -3.353000000    -1.400000000
H    -3.821000000    -3.314000000    -0.479000000
C    -1.979000000    -4.042000000    -1.430000000
O    -1.666000000    -4.633000000    -0.223000000
C    -0.579000000    -4.040000000     0.511000000
C    -0.713000000    -4.060000000     1.966000000
C    -1.951000000    -4.150000000     2.556000000
H    -2.861000000    -4.238000000     1.968000000
C     0.357000000    -3.921000000     2.868000000
H     1.332000000    -3.726000000     2.431000000
O     0.602000000    -4.763000000     0.226000000
H    -0.279000000    -3.046000000     0.148000000
C    -1.137000000    -3.956000000    -2.497000000
C     0.062000000    -4.915000000    -2.591000000
H     0.176000000    -5.251000000    -3.624000000
H    -0.239000000    -5.740000000    -1.942000000
C     1.282000000    -4.236000000    -2.071000000
C     1.539000000    -4.167000000    -0.680000000
C     2.607000000    -3.444000000    -0.210000000
H     2.739000000    -3.363000000     0.866000000
C     3.420000000    -2.718000000    -1.111000000
O     4.393000000    -1.950000000    -0.599000000
C     3.981000000    -0.555000000    -0.399000000
H     2.892000000    -0.401000000    -0.380000000
C     4.447000000    -0.094000000     0.984000000
C     4.355000000     1.275000000     1.271000000
H     4.013000000     1.972000000     0.510000000
C     4.695000000    -0.960000000     2.061000000
H     4.790000000    -2.030000000     1.890000000
C     4.991000000    -0.483000000     3.367000000
O     5.307000000    -1.326000000     4.361000000
C     4.965000000     0.925000000     3.564000000
H     5.121000000     1.314000000     4.567000000
C     4.673000000     1.807000000     2.526000000
O     4.495000000     3.133000000     2.750000000
C     4.863000000     4.087000000     1.846000000
C     3.817000000     4.955000000     1.514000000
H     2.828000000     4.732000000     1.907000000
C     6.131000000     4.242000000     1.295000000
H     6.924000000     3.503000000     1.373000000
C     6.351000000     5.323000000     0.448000000
H     7.314000000     5.469000000    -0.034000000
C     5.359000000     6.271000000     0.171000000
H     5.623000000     7.099000000    -0.482000000
C     4.072000000     6.067000000     0.722000000
O     2.967000000     6.864000000     0.425000000
C     1.793000000     6.323000000    -0.056000000
C     0.529000000     6.878000000     0.273000000
H     0.505000000     7.725000000     0.954000000
C    -0.629000000     6.429000000    -0.350000000
O    -1.818000000     6.910000000     0.122000000
C    -3.000000000     6.193000000     0.182000000
C    -3.113000000     5.088000000     1.035000000
H    -2.354000000     4.807000000     1.761000000
C    -4.004000000     6.513000000    -0.688000000
H    -3.880000000     7.394000000    -1.313000000
C    -5.122000000     5.702000000    -0.746000000
H    -5.843000000     5.958000000    -1.517000000
C    -5.303000000     4.626000000     0.154000000
H    -6.185000000     3.991000000     0.138000000
C    -4.285000000     4.273000000     1.007000000
O    -4.339000000     3.093000000     1.765000000
C    -4.656000000     1.854000000     1.210000000
C    -5.346000000     1.061000000     2.121000000
H    -5.840000000     1.504000000     2.982000000
C    -5.535000000    -0.314000000     1.835000000
O    -6.283000000    -1.089000000     2.635000000
C    -6.037000000    -2.296000000     3.130000000
C    -4.787000000    -2.737000000     3.506000000
H    -3.884000000    -2.132000000     3.521000000
C    -7.184000000    -3.166000000     3.229000000
H    -8.159000000    -2.845000000     2.870000000
C    -6.997000000    -4.479000000     3.710000000
H    -7.862000000    -5.118000000     3.870000000
C    -5.761000000    -4.851000000     4.188000000
H    -5.633000000    -5.826000000     4.651000000
C    -4.621000000    -4.017000000     4.048000000
O    -3.395000000    -4.431000000     4.563000000
C    -2.115000000    -4.261000000     3.961000000
C    -1.011000000    -4.177000000     4.825000000
H    -1.131000000    -4.217000000     5.905000000
C     0.245000000    -4.111000000     4.283000000
O     1.283000000    -3.920000000     5.168000000
C     2.619000000    -3.845000000     4.842000000
C     3.326000000    -5.058000000     4.765000000
H     2.800000000    -5.987000000     4.967000000
C     4.730000000    -5.006000000     4.545000000
H     5.215000000    -5.972000000     4.436000000
C     5.364000000    -3.781000000     4.315000000
H     6.436000000    -3.706000000     4.153000000
C     4.665000000    -2.638000000     4.436000000
C     3.319000000    -2.629000000     4.718000000
H     2.618000000    -1.801000000     4.790000000
C     0.826000000     0.282000000     2.358000000
H     1.299000000    -0.326000000     3.125000000
C     0.508000000    -0.414000000     1.212000000
H     0.591000000    -1.498000000     1.223000000
C    -0.118000000     0.316000000     0.264000000
H    -0.525000000    -0.118000000    -0.643000000
C    -0.351000000     1.645000000     0.380000000
H    -0.933000000     2.177000000    -0.368000000
C     0.086000000     2.410000000     1.469000000
H    -0.081000000     3.482000000     1.400000000
C     0.634000000     1.700000000     2.553000000
C     1.026000000     2.383000000     3.816000000
O     0.965000000     3.596000000     3.814000000
O     1.312000000     1.748000000     4.795000000
O    -0.729000000     2.438000000     6.355000000
H    -0.241000000     2.710000000     7.132000000
H    -0.073000000     2.026000000     5.792000000
O     2.254000000     6.051000000     4.462000000
H     1.947000000     5.204000000     4.140000000
H     3.161000000     5.893000000     4.725000000
O    -3.144000000     2.088000000     7.584000000
H    -2.724000000     1.393000000     8.090000000
H    -2.430000000     2.487000000     7.086000000
O     4.366000000     2.475000000     8.367000000
H     4.284000000     3.320000000     8.809000000
H     3.984000000     2.620000000     7.502000000
O    -1.610000000    -1.462000000     6.687000000
H    -1.867000000    -0.852000000     7.378000000
H    -0.918000000    -1.004000000     6.209000000
O     0.265000000     1.718000000     9.203000000
H     0.338000000     2.502000000     9.748000000
H     0.991000000     1.162000000     9.486000000
O     1.934000000     8.805000000     4.908000000
H     1.552000000     9.102000000     4.083000000
H     1.947000000     7.850000000     4.836000000
O    -5.043000000     5.131000000     4.414000000
H    -5.700000000     4.491000000     4.141000000
H    -4.287000000     4.604000000     4.673000000
O     1.708000000     4.659000000     7.886000000
H     2.416000000     4.609000000     8.528000000
H     2.102000000     4.352000000     7.069000000
O    -1.089000000     5.647000000     7.488000000
H    -1.691000000     5.106000000     7.999000000
H    -0.239000000     5.216000000     7.583000000
O    -0.771000000     5.658000000     4.378000000
H    -0.061000000     5.037000000     4.212000000
H    -0.547000000     6.058000000     5.218000000
O     1.295000000     0.107000000     7.015000000
H     1.063000000     0.834000000     7.593000000
H     1.671000000     0.526000000     6.242000000
O    -2.043000000     7.960000000     3.428000000
H    -1.506000000     7.168000000     3.425000000
H    -2.546000000     7.906000000     4.240000000
O     3.035000000     3.166000000     6.109000000
H     2.605000000     2.592000000     5.475000000
H     3.456000000     3.840000000     5.575000000
O    -1.851000000     0.160000000     8.942000000
H    -1.036000000     0.662000000     8.958000000
H    -1.737000000    -0.505000000     9.621000000
O     4.674000000     5.541000000     5.728000000
H     5.439000000     4.968000000     5.682000000
H     4.903000000     6.193000000     6.391000000
O    -4.615000000     0.239000000     5.356000000
H    -4.086000000     0.212000000     4.558000000
H    -4.011000000     0.543000000     6.034000000
O    -2.610000000     0.486000000     3.469000000
H    -2.187000000     0.394000000     2.616000000
H    -2.679000000     1.431000000     3.602000000
O    -2.558000000     3.540000000     4.768000000
H    -2.006000000     4.232000000     4.404000000
H    -1.958000000     3.004000000     5.287000000
