215
-1497.00556
C    -1.338000000     4.695000000    -0.588000000
H    -2.159000000     4.397000000    -1.235000000
C     0.010000000     4.548000000    -0.964000000
C     1.036000000     4.871000000    -0.061000000
H     2.099000000     4.781000000    -0.269000000
C     0.402000000     3.660000000    -2.140000000
O    -0.617000000     3.703000000    -3.156000000
H     0.362000000     2.631000000    -1.754000000
O     1.620000000     3.925000000    -2.725000000
C     2.388000000     2.774000000    -2.866000000
C     3.413000000     2.506000000    -2.004000000
H     3.694000000     3.214000000    -1.228000000
C     4.140000000     1.320000000    -2.031000000
O     4.910000000     1.035000000    -0.958000000
C     3.821000000     0.367000000    -2.989000000
C     4.494000000    -1.027000000    -3.081000000
H     4.374000000    -1.325000000    -4.125000000
C     3.730000000    -2.024000000    -2.229000000
C     2.775000000    -2.858000000    -2.784000000
H     2.488000000    -2.780000000    -3.829000000
H     5.541000000    -1.087000000    -2.777000000
C     2.854000000     0.721000000    -4.012000000
H     2.591000000     0.006000000    -4.788000000
C     2.142000000     1.872000000    -3.920000000
C     1.079000000     2.192000000    -4.977000000
H     1.331000000     1.717000000    -5.927000000
H     1.050000000     3.255000000    -5.224000000
C    -0.274000000     1.633000000    -4.409000000
C    -0.821000000     0.437000000    -4.862000000
H    -0.253000000    -0.228000000    -5.507000000
C    -1.129000000     2.426000000    -3.579000000
C    -2.419000000     1.964000000    -3.263000000
H    -3.163000000     2.551000000    -2.731000000
C    -2.863000000     0.814000000    -3.826000000
O    -4.031000000     0.315000000    -3.247000000
C    -3.899000000    -0.498000000    -2.064000000
C    -4.889000000    -0.200000000    -0.934000000
C    -5.319000000    -1.244000000    -0.113000000
H    -5.052000000    -2.260000000    -0.390000000
C    -5.388000000     1.083000000    -0.804000000
H    -5.213000000     1.870000000    -1.533000000
O    -4.004000000    -1.921000000    -2.341000000
H    -2.884000000    -0.399000000    -1.652000000
C    -2.101000000    -0.071000000    -4.525000000
C    -2.484000000    -1.452000000    -4.866000000
H    -2.006000000    -1.749000000    -5.802000000
H    -3.558000000    -1.579000000    -5.022000000
C    -1.973000000    -2.377000000    -3.724000000
C    -0.772000000    -3.120000000    -3.798000000
H    -0.091000000    -2.981000000    -4.633000000
C    -2.826000000    -2.570000000    -2.601000000
C    -2.409000000    -3.387000000    -1.555000000
H    -3.026000000    -3.597000000    -0.685000000
C    -1.161000000    -3.985000000    -1.561000000
O    -0.770000000    -4.664000000    -0.469000000
C     0.191000000    -4.073000000     0.387000000
C    -0.178000000    -4.144000000     1.817000000
C    -1.548000000    -4.322000000     2.132000000
H    -2.314000000    -4.387000000     1.364000000
C     0.789000000    -3.904000000     2.809000000
H     1.780000000    -3.571000000     2.512000000
O     1.509000000    -4.633000000     0.089000000
H     0.273000000    -2.995000000     0.183000000
C    -0.332000000    -3.884000000    -2.705000000
C     1.017000000    -4.584000000    -2.781000000
H     1.318000000    -4.730000000    -3.821000000
H     0.944000000    -5.594000000    -2.373000000
C     2.121000000    -3.798000000    -2.063000000
C     2.326000000    -3.816000000    -0.666000000
C     3.260000000    -3.023000000    -0.036000000
H     3.484000000    -3.212000000     1.010000000
C     3.930000000    -2.067000000    -0.841000000
O     4.786000000    -1.226000000    -0.229000000
C     4.421000000     0.176000000     0.002000000
H     3.332000000     0.298000000    -0.093000000
C     4.902000000     0.571000000     1.387000000
C     5.049000000     1.922000000     1.675000000
H     5.090000000     2.678000000     0.895000000
C     5.046000000    -0.432000000     2.427000000
H     4.983000000    -1.499000000     2.224000000
C     5.284000000     0.032000000     3.690000000
O     5.317000000    -0.846000000     4.714000000
C     5.359000000     1.369000000     3.990000000
H     5.628000000     1.765000000     4.965000000
C     5.364000000     2.282000000     2.970000000
O     5.728000000     3.554000000     3.173000000
C     5.018000000     4.519000000     2.528000000
C     3.607000000     4.602000000     2.623000000
H     3.133000000     3.765000000     3.128000000
C     5.790000000     5.471000000     1.842000000
H     6.867000000     5.332000000     1.878000000
C     5.140000000     6.458000000     1.094000000
H     5.724000000     7.189000000     0.540000000
C     3.723000000     6.558000000     1.209000000
H     3.193000000     7.352000000     0.689000000
C     3.025000000     5.631000000     1.961000000
O     1.623000000     5.773000000     2.101000000
C     0.678000000     5.361000000     1.184000000
C    -0.633000000     5.605000000     1.502000000
H    -0.921000000     6.019000000     2.465000000
C    -1.662000000     5.296000000     0.616000000
O    -2.955000000     5.547000000     1.078000000
C    -4.083000000     5.099000000     0.454000000
C    -4.795000000     4.001000000     0.894000000
H    -4.512000000     3.440000000     1.781000000
C    -4.480000000     5.798000000    -0.722000000
H    -3.927000000     6.704000000    -0.956000000
C    -5.633000000     5.439000000    -1.401000000
H    -5.928000000     5.870000000    -2.354000000
C    -6.354000000     4.320000000    -0.937000000
H    -7.287000000     4.053000000    -1.426000000
C    -5.977000000     3.635000000     0.225000000
O    -6.743000000     2.581000000     0.600000000
C    -6.304000000     1.313000000     0.258000000
C    -6.740000000     0.259000000     1.078000000
H    -7.474000000     0.408000000     1.866000000
C    -6.261000000    -1.054000000     0.889000000
O    -6.767000000    -2.080000000     1.618000000
C    -6.160000000    -3.261000000     1.962000000
C    -5.020000000    -3.219000000     2.773000000
H    -4.651000000    -2.272000000     3.158000000
C    -6.695000000    -4.478000000     1.598000000
H    -7.583000000    -4.504000000     0.972000000
C    -6.081000000    -5.672000000     1.998000000
H    -6.520000000    -6.640000000     1.773000000
C    -4.844000000    -5.603000000     2.675000000
H    -4.262000000    -6.462000000     2.999000000
C    -4.338000000    -4.392000000     3.079000000
O    -3.218000000    -4.343000000     3.907000000
C    -1.921000000    -4.326000000     3.477000000
C    -0.935000000    -4.173000000     4.458000000
H    -1.243000000    -4.212000000     5.500000000
C     0.395000000    -3.899000000     4.168000000
O     1.293000000    -3.380000000     5.138000000
C     2.681000000    -3.362000000     4.860000000
C     3.402000000    -4.598000000     4.693000000
H     2.778000000    -5.488000000     4.696000000
C     4.765000000    -4.512000000     4.401000000
H     5.357000000    -5.378000000     4.117000000
C     5.356000000    -3.267000000     4.476000000
H     6.422000000    -3.181000000     4.281000000
C     4.628000000    -2.122000000     4.711000000
C     3.313000000    -2.149000000     4.960000000
H     2.752000000    -1.238000000     5.151000000
C     0.757000000     0.719000000     2.635000000
H     1.374000000     0.728000000     3.529000000
C     1.181000000    -0.049000000     1.574000000
H     2.074000000    -0.660000000     1.674000000
C     0.496000000     0.056000000     0.384000000
H     0.761000000    -0.601000000    -0.500000000
C    -0.634000000     0.913000000     0.230000000
H    -1.058000000     1.045000000    -0.762000000
C    -1.042000000     1.598000000     1.319000000
H    -1.785000000     2.389000000     1.378000000
C    -0.297000000     1.598000000     2.537000000
C    -0.809000000     2.549000000     3.691000000
O    -1.782000000     3.267000000     3.612000000
O    -0.247000000     2.522000000     4.782000000
O    -2.318000000     7.739000000     4.827000000
H    -2.533000000     7.962000000     5.733000000
H    -2.924000000     7.033000000     4.603000000
O    -0.434000000    -2.395000000     7.416000000
H    -0.199000000    -1.932000000     6.612000000
H    -0.088000000    -3.279000000     7.294000000
O    -2.474000000     1.720000000     6.218000000
H    -1.738000000     2.183000000     5.819000000
H    -2.463000000     1.995000000     7.135000000
O     4.057000000     3.186000000     6.836000000
H     4.002000000     4.057000000     6.444000000
H     4.171000000     3.352000000     7.772000000
O    -3.137000000    -0.743000000     5.095000000
H    -2.834000000     0.084000000     5.470000000
H    -2.510000000    -1.394000000     5.411000000
O     0.126000000    -0.596000000     5.328000000
H    -0.062000000    -0.440000000     4.403000000
H     0.458000000     0.242000000     5.650000000
O    -0.799000000     4.743000000     8.581000000
H    -0.995000000     5.541000000     9.072000000
H    -1.658000000     4.387000000     8.349000000
O    -4.011000000     1.509000000     3.583000000
H    -3.684000000     0.629000000     3.771000000
H    -3.280000000     2.087000000     3.800000000
O    -3.534000000     5.106000000     4.221000000
H    -2.846000000     4.466000000     4.037000000
H    -3.915000000     5.302000000     3.365000000
O     0.158000000     7.706000000     7.067000000
H    -0.002000000     7.394000000     6.176000000
H     1.031000000     7.379000000     7.282000000
O     0.279000000     4.875000000     5.856000000
H    -0.093000000     4.052000000     5.536000000
H    -0.113000000     4.994000000     6.721000000
O     1.717000000     1.537000000     6.356000000
H     2.477000000     2.114000000     6.283000000
H     1.050000000     1.949000000     5.807000000
O     3.542000000     5.662000000     5.630000000
H     2.585000000     5.671000000     5.640000000
H     3.784000000     6.448000000     5.140000000
O     0.964000000     0.906000000     9.277000000
H     1.301000000     0.441000000     8.511000000
H     1.294000000     1.799000000     9.179000000
O    -5.524000000     1.218000000     6.785000000
H    -5.535000000     0.584000000     7.502000000
H    -4.609000000     1.488000000     6.718000000
O    -1.880000000     1.517000000     8.970000000
H    -0.934000000     1.376000000     8.921000000
H    -2.170000000     0.941000000     9.678000000
O    -6.560000000     1.458000000     4.246000000
H    -6.251000000     1.308000000     5.139000000
H    -5.761000000     1.576000000     3.732000000
O    -4.235000000     5.184000000     6.901000000
H    -3.951000000     5.061000000     5.995000000
H    -4.900000000     4.510000000     7.038000000
O     1.008000000     7.379000000     4.422000000
H     1.440000000     7.607000000     3.598000000
H     0.889000000     6.430000000     4.375000000
