215
-1441.41902
C    -1.377000000     4.523000000    -0.680000000
H    -1.910000000     4.442000000    -1.624000000
C    -0.038000000     4.084000000    -0.654000000
C     0.754000000     4.291000000     0.432000000
H     1.801000000     3.999000000     0.392000000
C     0.548000000     3.394000000    -1.878000000
O    -0.254000000     3.513000000    -3.088000000
H     0.584000000     2.365000000    -1.490000000
O     1.921000000     3.809000000    -2.248000000
C     2.792000000     2.680000000    -2.362000000
C     3.748000000     2.470000000    -1.392000000
H     3.820000000     3.135000000    -0.535000000
C     4.541000000     1.302000000    -1.435000000
O     5.341000000     0.914000000    -0.347000000
C     4.344000000     0.404000000    -2.475000000
C     5.092000000    -0.958000000    -2.441000000
H     5.120000000    -1.291000000    -3.481000000
C     4.238000000    -2.077000000    -1.772000000
C     3.387000000    -2.903000000    -2.567000000
H     3.256000000    -2.780000000    -3.639000000
H     6.122000000    -0.919000000    -2.082000000
C     3.432000000     0.652000000    -3.491000000
H     3.364000000     0.002000000    -4.360000000
C     2.686000000     1.834000000    -3.458000000
C     1.758000000     2.047000000    -4.625000000
H     2.197000000     1.657000000    -5.546000000
H     1.821000000     3.120000000    -4.818000000
C     0.336000000     1.616000000    -4.457000000
C    -0.014000000     0.371000000    -5.030000000
H     0.734000000    -0.257000000    -5.506000000
C    -0.607000000     2.391000000    -3.811000000
C    -1.917000000     1.895000000    -3.681000000
H    -2.659000000     2.456000000    -3.119000000
C    -2.286000000     0.710000000    -4.324000000
O    -3.525000000     0.306000000    -3.953000000
C    -3.642000000    -0.549000000    -2.816000000
C    -4.800000000    -0.261000000    -1.933000000
C    -5.164000000    -1.176000000    -0.907000000
H    -4.608000000    -2.110000000    -0.878000000
C    -5.345000000     0.995000000    -2.049000000
H    -5.214000000     1.659000000    -2.899000000
O    -3.622000000    -1.942000000    -3.264000000
H    -2.702000000    -0.406000000    -2.263000000
C    -1.295000000    -0.040000000    -4.942000000
C    -1.580000000    -1.427000000    -5.432000000
H    -0.832000000    -1.639000000    -6.199000000
H    -2.580000000    -1.483000000    -5.865000000
C    -1.427000000    -2.451000000    -4.230000000
C    -0.223000000    -3.092000000    -4.118000000
H     0.449000000    -3.014000000    -4.969000000
C    -2.434000000    -2.623000000    -3.295000000
C    -2.223000000    -3.424000000    -2.188000000
H    -3.034000000    -3.452000000    -1.465000000
C    -0.902000000    -3.923000000    -2.008000000
O    -0.683000000    -4.533000000    -0.817000000
C     0.190000000    -3.922000000     0.188000000
C    -0.417000000    -3.893000000     1.611000000
C    -1.789000000    -4.067000000     1.876000000
H    -2.512000000    -4.211000000     1.077000000
C     0.306000000    -3.528000000     2.705000000
H     1.366000000    -3.291000000     2.674000000
O     1.503000000    -4.443000000     0.205000000
H     0.371000000    -2.865000000    -0.057000000
C     0.101000000    -3.793000000    -2.956000000
C     1.455000000    -4.535000000    -2.714000000
H     1.915000000    -4.774000000    -3.675000000
H     1.321000000    -5.527000000    -2.277000000
C     2.447000000    -3.770000000    -1.896000000
C     2.425000000    -3.801000000    -0.505000000
C     3.352000000    -3.043000000     0.266000000
H     3.361000000    -2.987000000     1.351000000
C     4.252000000    -2.179000000    -0.380000000
O     5.152000000    -1.420000000     0.336000000
C     4.827000000    -0.023000000     0.620000000
H     3.731000000    -0.078000000     0.545000000
C     4.974000000     0.369000000     2.064000000
C     5.064000000     1.723000000     2.473000000
H     4.891000000     2.552000000     1.791000000
C     4.836000000    -0.596000000     3.079000000
H     4.578000000    -1.632000000     2.879000000
C     4.967000000    -0.261000000     4.384000000
O     5.033000000    -1.228000000     5.399000000
C     5.048000000     1.113000000     4.767000000
H     5.107000000     1.349000000     5.827000000
C     5.084000000     2.119000000     3.847000000
O     5.101000000     3.402000000     4.219000000
C     4.326000000     4.352000000     3.673000000
C     2.971000000     4.131000000     3.451000000
H     2.566000000     3.163000000     3.734000000
C     4.956000000     5.488000000     3.202000000
H     5.993000000     5.748000000     3.398000000
C     4.122000000     6.481000000     2.627000000
H     4.675000000     7.319000000     2.210000000
C     2.760000000     6.299000000     2.483000000
H     2.247000000     7.145000000     2.032000000
C     2.200000000     5.113000000     2.906000000
O     0.851000000     4.874000000     2.723000000
C     0.158000000     4.817000000     1.549000000
C    -1.143000000     5.240000000     1.524000000
H    -1.557000000     5.831000000     2.337000000
C    -1.927000000     5.067000000     0.462000000
O    -3.267000000     5.470000000     0.566000000
C    -4.286000000     5.158000000    -0.342000000
C    -5.037000000     3.969000000    -0.274000000
H    -4.797000000     3.284000000     0.535000000
C    -4.596000000     6.113000000    -1.319000000
H    -4.081000000     7.071000000    -1.334000000
C    -5.596000000     5.847000000    -2.261000000
H    -5.839000000     6.592000000    -3.014000000
C    -6.372000000     4.659000000    -2.156000000
H    -7.234000000     4.417000000    -2.773000000
C    -6.070000000     3.756000000    -1.152000000
O    -6.826000000     2.564000000    -1.187000000
C    -6.298000000     1.308000000    -1.063000000
C    -6.601000000     0.570000000    -0.015000000
H    -7.371000000     0.941000000     0.656000000
C    -6.119000000    -0.729000000     0.022000000
O    -6.580000000    -1.560000000     0.975000000
C    -6.091000000    -2.827000000     1.172000000
C    -5.101000000    -2.951000000     2.087000000
H    -4.739000000    -2.080000000     2.628000000
C    -6.683000000    -3.943000000     0.586000000
H    -7.580000000    -3.808000000    -0.014000000
C    -6.090000000    -5.208000000     0.845000000
H    -6.623000000    -6.131000000     0.630000000
C    -5.086000000    -5.319000000     1.776000000
H    -4.843000000    -6.307000000     2.159000000
C    -4.570000000    -4.182000000     2.413000000
O    -3.610000000    -4.377000000     3.359000000
C    -2.302000000    -4.059000000     3.166000000
C    -1.514000000    -3.655000000     4.287000000
H    -1.850000000    -3.796000000     5.312000000
C    -0.179000000    -3.482000000     3.992000000
O     0.654000000    -3.131000000     5.012000000
C     2.007000000    -3.296000000     5.168000000
C     2.574000000    -4.571000000     5.382000000
H     1.906000000    -5.428000000     5.359000000
C     3.925000000    -4.699000000     5.798000000
H     4.421000000    -5.578000000     6.201000000
C     4.632000000    -3.545000000     5.769000000
H     5.693000000    -3.533000000     6.005000000
C     4.178000000    -2.278000000     5.406000000
C     2.850000000    -2.198000000     5.018000000
H     2.433000000    -1.251000000     4.687000000
C     0.483000000    -0.103000000     2.649000000
H     0.704000000    -0.233000000     3.706000000
C     1.305000000    -0.613000000     1.647000000
H     2.074000000    -1.267000000     2.049000000
C     1.041000000    -0.428000000     0.307000000
H     1.675000000    -0.736000000    -0.443000000
C    -0.073000000     0.356000000    -0.049000000
H    -0.297000000     0.476000000    -1.106000000
C    -0.792000000     1.024000000     0.915000000
H    -1.485000000     1.752000000     0.500000000
C    -0.479000000     0.883000000     2.280000000
C    -1.124000000     1.753000000     3.276000000
O    -2.184000000     2.256000000     2.986000000
O    -0.747000000     1.738000000     4.448000000
O    -1.654000000     1.355000000     7.513000000
H    -1.461000000     1.273000000     6.579000000
H    -1.268000000     0.572000000     7.907000000
O     3.165000000     2.870000000     6.821000000
H     2.738000000     3.722000000     6.733000000
H     4.095000000     3.076000000     6.914000000
O    -2.620000000    -0.339000000     4.829000000
H    -1.822000000     0.174000000     4.706000000
H    -3.310000000     0.191000000     4.429000000
O     0.303000000    -1.046000000     8.152000000
H     0.890000000    -0.549000000     8.722000000
H     0.307000000    -0.562000000     7.326000000
O    -0.223000000     4.075000000     8.512000000
H    -0.961000000     3.544000000     8.810000000
H     0.223000000     4.339000000     9.317000000
O    -4.515000000     1.337000000     3.780000000
H    -4.775000000     2.161000000     4.191000000
H    -3.669000000     1.527000000     3.374000000
O    -3.536000000     0.039000000     9.656000000
H    -3.940000000     0.407000000     8.869000000
H    -3.328000000    -0.864000000     9.418000000
O    -3.535000000     4.084000000     4.499000000
H    -2.876000000     4.521000000     5.038000000
H    -3.035000000     3.472000000     3.959000000
O    -1.404000000     7.148000000     7.418000000
H    -0.657000000     6.987000000     7.994000000
H    -1.078000000     6.945000000     6.541000000
O     3.696000000    -0.023000000     7.917000000
H     3.025000000     0.085000000     8.592000000
H     3.213000000     0.023000000     7.092000000
O    -3.887000000    -1.573000000     7.108000000
H    -4.366000000    -2.362000000     6.854000000
H    -3.510000000    -1.247000000     6.291000000
O    -1.204000000     3.952000000     5.861000000
H    -0.918000000     3.259000000     5.265000000
H    -0.846000000     3.697000000     6.712000000
O     1.203000000     0.742000000     6.038000000
H     1.589000000     1.537000000     6.406000000
H     0.512000000     1.059000000     5.456000000
O     1.895000000     5.219000000     7.030000000
H     1.105000000     4.729000000     7.256000000
H     1.669000000     6.133000000     7.207000000
O    -7.102000000     0.352000000     3.402000000
H    -7.100000000    -0.591000000     3.235000000
H    -6.176000000     0.589000000     3.449000000
O    -4.184000000     2.370000000     8.057000000
H    -4.660000000     2.409000000     7.228000000
H    -3.310000000     2.061000000     7.818000000
O    -7.328000000     2.129000000     5.895000000
H    -7.803000000     1.536000000     6.477000000
H    -7.307000000     1.674000000     5.054000000
O    -5.850000000     4.707000000     5.692000000
H    -5.061000000     4.363000000     5.273000000
H    -6.407000000     3.939000000     5.821000000
O    -0.782000000     6.638000000     4.799000000
H     0.140000000     6.604000000     4.542000000
H    -1.042000000     5.720000000     4.880000000
