215
-1440.00855
C    -1.953000000     4.656000000    -1.154000000
H    -2.700000000     4.194000000    -1.794000000
C    -0.580000000     4.379000000    -1.164000000
C     0.194000000     4.949000000    -0.153000000
H     1.271000000     4.802000000    -0.144000000
C     0.030000000     3.339000000    -2.097000000
O    -0.654000000     3.514000000    -3.380000000
H    -0.101000000     2.355000000    -1.622000000
O     1.360000000     3.645000000    -2.439000000
C     2.278000000     2.645000000    -2.555000000
C     2.978000000     2.434000000    -1.414000000
H     2.866000000     3.091000000    -0.555000000
C     4.006000000     1.453000000    -1.321000000
O     4.698000000     1.295000000    -0.111000000
C     4.236000000     0.681000000    -2.462000000
C     5.068000000    -0.553000000    -2.358000000
H     5.505000000    -0.776000000    -3.333000000
C     4.301000000    -1.691000000    -1.670000000
C     3.501000000    -2.536000000    -2.429000000
H     3.392000000    -2.424000000    -3.504000000
H     5.950000000    -0.234000000    -1.798000000
C     3.435000000     0.857000000    -3.656000000
H     3.637000000     0.196000000    -4.495000000
C     2.436000000     1.850000000    -3.689000000
C     1.561000000     2.109000000    -4.928000000
H     2.110000000     1.598000000    -5.721000000
H     1.672000000     3.175000000    -5.141000000
C     0.130000000     1.565000000    -4.777000000
C    -0.270000000     0.290000000    -5.240000000
H     0.464000000    -0.242000000    -5.840000000
C    -0.845000000     2.284000000    -3.986000000
C    -2.062000000     1.668000000    -3.769000000
H    -2.680000000     2.197000000    -3.049000000
C    -2.466000000     0.509000000    -4.314000000
O    -3.632000000     0.005000000    -3.782000000
C    -3.475000000    -0.750000000    -2.517000000
C    -4.731000000    -0.626000000    -1.672000000
C    -5.089000000    -1.669000000    -0.855000000
H    -4.680000000    -2.672000000    -0.943000000
C    -5.297000000     0.647000000    -1.496000000
H    -5.092000000     1.493000000    -2.147000000
O    -3.270000000    -2.148000000    -2.780000000
H    -2.747000000    -0.273000000    -1.844000000
C    -1.478000000    -0.316000000    -4.894000000
C    -1.620000000    -1.807000000    -5.159000000
H    -1.040000000    -2.078000000    -6.044000000
H    -2.639000000    -2.045000000    -5.469000000
C    -1.105000000    -2.619000000    -3.958000000
C     0.129000000    -3.260000000    -3.916000000
H     0.795000000    -3.252000000    -4.775000000
C    -1.991000000    -2.742000000    -2.880000000
C    -1.626000000    -3.483000000    -1.778000000
H    -2.375000000    -3.574000000    -0.995000000
C    -0.398000000    -4.106000000    -1.731000000
O    -0.068000000    -4.698000000    -0.527000000
C     0.705000000    -3.966000000     0.455000000
C     0.221000000    -4.069000000     1.869000000
C    -1.133000000    -3.912000000     2.133000000
H    -1.814000000    -3.913000000     1.286000000
C     1.118000000    -3.936000000     2.960000000
H     2.195000000    -3.882000000     2.824000000
O     2.082000000    -4.559000000     0.358000000
H     0.665000000    -2.894000000     0.211000000
C     0.510000000    -3.959000000    -2.748000000
C     1.977000000    -4.441000000    -2.671000000
H     2.428000000    -4.519000000    -3.663000000
H     1.822000000    -5.468000000    -2.332000000
C     2.857000000    -3.575000000    -1.784000000
C     2.928000000    -3.740000000    -0.419000000
C     3.641000000    -2.820000000     0.359000000
H     3.555000000    -2.856000000     1.442000000
C     4.394000000    -1.863000000    -0.286000000
O     5.044000000    -0.924000000     0.481000000
C     4.277000000     0.290000000     0.845000000
H     3.209000000     0.137000000     0.629000000
C     4.422000000     0.758000000     2.243000000
C     3.887000000     1.973000000     2.582000000
H     3.435000000     2.589000000     1.809000000
C     4.853000000    -0.122000000     3.263000000
H     5.011000000    -1.140000000     2.915000000
C     4.800000000     0.249000000     4.664000000
O     5.002000000    -0.671000000     5.641000000
C     4.248000000     1.500000000     4.914000000
H     4.112000000     1.743000000     5.964000000
C     3.779000000     2.326000000     3.928000000
O     3.181000000     3.592000000     4.217000000
C     3.142000000     4.659000000     3.292000000
C     1.854000000     5.137000000     2.854000000
H     0.966000000     4.682000000     3.285000000
C     4.272000000     5.286000000     2.739000000
H     5.223000000     4.885000000     3.080000000
C     4.247000000     6.251000000     1.782000000
H     5.065000000     6.740000000     1.259000000
C     2.986000000     6.680000000     1.342000000
H     2.963000000     7.526000000     0.660000000
C     1.776000000     6.205000000     1.919000000
O     0.547000000     6.499000000     1.625000000
C    -0.348000000     5.877000000     0.777000000
C    -1.688000000     6.169000000     0.688000000
H    -2.050000000     6.862000000     1.442000000
C    -2.540000000     5.631000000    -0.251000000
O    -3.854000000     5.987000000    -0.315000000
C    -4.826000000     5.204000000    -0.856000000
C    -5.266000000     4.010000000    -0.341000000
H    -4.692000000     3.562000000     0.466000000
C    -5.572000000     5.765000000    -1.902000000
H    -5.282000000     6.742000000    -2.278000000
C    -6.711000000     5.088000000    -2.426000000
H    -7.210000000     5.444000000    -3.324000000
C    -7.055000000     3.842000000    -1.896000000
H    -7.831000000     3.207000000    -2.316000000
C    -6.369000000     3.364000000    -0.822000000
O    -6.763000000     2.127000000    -0.313000000
C    -6.299000000     0.852000000    -0.553000000
C    -6.736000000    -0.234000000     0.229000000
H    -7.505000000    -0.052000000     0.976000000
C    -6.127000000    -1.511000000     0.035000000
O    -6.586000000    -2.562000000     0.846000000
C    -5.797000000    -3.493000000     1.477000000
C    -4.747000000    -3.072000000     2.258000000
H    -4.592000000    -2.014000000     2.453000000
C    -6.017000000    -4.856000000     1.215000000
H    -6.757000000    -5.192000000     0.494000000
C    -5.255000000    -5.783000000     1.849000000
H    -5.419000000    -6.828000000     1.602000000
C    -4.175000000    -5.385000000     2.681000000
H    -3.622000000    -6.170000000     3.189000000
C    -3.955000000    -4.005000000     2.958000000
O    -2.958000000    -3.669000000     3.740000000
C    -1.635000000    -3.909000000     3.420000000
C    -0.745000000    -3.965000000     4.516000000
H    -1.177000000    -3.823000000     5.504000000
C     0.618000000    -4.060000000     4.272000000
O     1.547000000    -3.924000000     5.357000000
C     2.899000000    -3.645000000     5.274000000
C     3.897000000    -4.667000000     5.097000000
H     3.594000000    -5.624000000     4.680000000
C     5.221000000    -4.275000000     5.137000000
H     6.011000000    -5.020000000     5.092000000
C     5.574000000    -2.976000000     5.500000000
H     6.624000000    -2.749000000     5.666000000
C     4.597000000    -2.019000000     5.656000000
C     3.262000000    -2.358000000     5.591000000
H     2.456000000    -1.639000000     5.711000000
C     0.204000000     0.317000000     3.032000000
H     0.652000000    -0.263000000     3.835000000
C     0.477000000    -0.122000000     1.765000000
H     1.253000000    -0.853000000     1.551000000
C    -0.172000000     0.536000000     0.708000000
H     0.062000000     0.207000000    -0.296000000
C    -1.183000000     1.437000000     0.923000000
H    -1.744000000     1.847000000     0.088000000
C    -1.439000000     1.871000000     2.237000000
H    -2.054000000     2.759000000     2.362000000
C    -0.670000000     1.406000000     3.320000000
C    -1.045000000     1.701000000     4.730000000
O    -1.960000000     2.436000000     4.944000000
O    -0.426000000     1.145000000     5.590000000
O    -1.189000000    -1.301000000     6.378000000
H    -0.716000000    -2.053000000     6.022000000
H    -0.823000000    -0.547000000     5.915000000
O    -0.715000000     7.916000000     4.437000000
H    -1.191000000     8.718000000     4.651000000
H    -1.389000000     7.236000000     4.417000000
O    -4.873000000     3.663000000     8.644000000
H    -3.962000000     3.899000000     8.469000000
H    -4.870000000     2.707000000     8.686000000
O    -4.107000000     1.183000000     5.766000000
H    -3.752000000     1.758000000     5.088000000
H    -3.509000000     1.288000000     6.506000000
O    -1.541000000    -0.882000000     8.954000000
H    -1.308000000    -0.726000000     8.039000000
H    -1.084000000    -1.691000000     9.183000000
O    -2.309000000     3.668000000     7.426000000
H    -2.140000000     3.086000000     6.686000000
H    -2.138000000     4.546000000     7.084000000
O    -5.410000000    -0.719000000     4.211000000
H    -5.698000000    -0.075000000     3.564000000
H    -4.900000000    -0.211000000     4.843000000
O    -2.108000000     5.080000000     4.707000000
H    -2.985000000     5.159000000     4.330000000
H    -1.990000000     4.141000000     4.846000000
O     0.417000000     1.719000000    10.239000000
H     1.225000000     2.173000000    10.479000000
H    -0.259000000     2.395000000    10.286000000
O    -3.876000000     0.869000000     8.895000000
H    -4.470000000     0.169000000     9.166000000
H    -3.003000000     0.483000000     8.968000000
O    -3.809000000    -2.606000000     6.630000000
H    -3.679000000    -2.979000000     5.758000000
H    -3.301000000    -1.795000000     6.621000000
O     0.995000000     3.161000000     6.802000000
H     0.462000000     2.468000000     6.412000000
H     1.774000000     2.709000000     7.128000000
O     1.156000000    -0.208000000     8.027000000
H     0.618000000     0.197000000     8.707000000
H     0.810000000     0.143000000     7.206000000
O     2.031000000     5.470000000     8.896000000
H     2.757000000     6.094000000     8.878000000
H     1.505000000     5.692000000     8.129000000
O    -6.013000000     4.559000000     6.161000000
H    -5.591000000     4.321000000     6.987000000
H    -6.906000000     4.799000000     6.408000000
O    -1.557000000     3.470000000    10.224000000
H    -1.402000000     4.356000000    10.554000000
H    -1.621000000     3.576000000     9.275000000
O    -4.929000000     4.994000000     3.669000000
H    -5.271000000     4.966000000     4.562000000
H    -5.046000000     4.103000000     3.339000000
O    -6.998000000     1.429000000     6.764000000
H    -6.303000000     0.814000000     6.996000000
H    -6.778000000     1.718000000     5.879000000
O     0.479000000     5.934000000     6.617000000
H     0.397000000     4.982000000     6.667000000
H     0.136000000     6.160000000     5.753000000
