215
-1452.05033
C    -2.271000000     5.105000000    -0.534000000
H    -2.944000000     5.002000000    -1.381000000
C    -0.956000000     4.645000000    -0.657000000
C    -0.100000000     4.753000000     0.438000000
H     0.958000000     4.503000000     0.453000000
C    -0.520000000     3.739000000    -1.887000000
O    -1.383000000     3.645000000    -3.103000000
H    -0.417000000     2.715000000    -1.500000000
O     0.771000000     4.075000000    -2.356000000
C     1.679000000     3.109000000    -2.718000000
C     2.692000000     2.892000000    -1.815000000
H     2.698000000     3.413000000    -0.861000000
C     3.619000000     1.821000000    -2.028000000
O     4.455000000     1.609000000    -1.001000000
C     3.547000000     1.064000000    -3.248000000
C     4.438000000    -0.189000000    -3.519000000
H     4.538000000    -0.529000000    -4.552000000
C     3.894000000    -1.340000000    -2.680000000
C     3.007000000    -2.228000000    -3.236000000
H     2.540000000    -1.931000000    -4.172000000
H     5.475000000     0.103000000    -3.345000000
C     2.489000000     1.288000000    -4.108000000
H     2.422000000     0.659000000    -4.993000000
C     1.580000000     2.311000000    -3.794000000
C     0.592000000     2.515000000    -4.873000000
H     1.000000000     2.134000000    -5.812000000
H     0.372000000     3.583000000    -4.931000000
C    -0.659000000     1.776000000    -4.434000000
C    -0.949000000     0.451000000    -4.833000000
H    -0.299000000    -0.050000000    -5.546000000
C    -1.625000000     2.428000000    -3.637000000
C    -2.727000000     1.763000000    -3.142000000
H    -3.301000000     2.310000000    -2.399000000
C    -3.018000000     0.459000000    -3.562000000
O    -4.086000000    -0.171000000    -3.088000000
C    -3.847000000    -0.994000000    -1.915000000
C    -4.887000000    -0.757000000    -0.840000000
C    -5.302000000    -1.761000000    -0.022000000
H    -4.791000000    -2.721000000    -0.039000000
C    -5.404000000     0.545000000    -0.632000000
H    -5.010000000     1.400000000    -1.174000000
O    -3.736000000    -2.373000000    -2.277000000
H    -2.896000000    -0.725000000    -1.431000000
C    -2.057000000    -0.212000000    -4.329000000
C    -2.351000000    -1.679000000    -4.765000000
H    -1.837000000    -1.945000000    -5.691000000
H    -3.437000000    -1.783000000    -4.794000000
C    -1.844000000    -2.701000000    -3.712000000
C    -0.581000000    -3.252000000    -3.976000000
H    -0.073000000    -3.077000000    -4.921000000
C    -2.466000000    -2.962000000    -2.506000000
C    -1.935000000    -3.807000000    -1.596000000
H    -2.493000000    -4.033000000    -0.691000000
C    -0.641000000    -4.266000000    -1.738000000
O     0.034000000    -4.963000000    -0.764000000
C     1.009000000    -4.061000000    -0.048000000
C     0.787000000    -4.070000000     1.510000000
C    -0.509000000    -3.853000000     1.939000000
H    -1.275000000    -3.739000000     1.176000000
C     1.842000000    -4.127000000     2.475000000
H     2.885000000    -4.150000000     2.170000000
O     2.394000000    -4.469000000    -0.326000000
H     0.876000000    -3.016000000    -0.364000000
C     0.043000000    -3.969000000    -2.918000000
C     1.450000000    -4.303000000    -3.167000000
H     1.571000000    -4.293000000    -4.252000000
H     1.696000000    -5.318000000    -2.850000000
C     2.503000000    -3.392000000    -2.551000000
C     2.987000000    -3.558000000    -1.241000000
C     3.957000000    -2.708000000    -0.651000000
H     4.192000000    -2.759000000     0.409000000
C     4.461000000    -1.619000000    -1.405000000
O     5.113000000    -0.639000000    -0.744000000
C     4.309000000     0.447000000    -0.230000000
H     3.252000000     0.144000000    -0.237000000
C     4.690000000     0.695000000     1.246000000
C     4.325000000     1.878000000     1.824000000
H     3.929000000     2.625000000     1.141000000
C     5.240000000    -0.291000000     2.113000000
H     5.471000000    -1.307000000     1.806000000
C     5.518000000     0.029000000     3.459000000
O     6.141000000    -0.886000000     4.290000000
C     5.362000000     1.267000000     4.001000000
H     5.615000000     1.461000000     5.040000000
C     4.666000000     2.157000000     3.150000000
O     4.547000000     3.451000000     3.652000000
C     3.745000000     4.477000000     3.274000000
C     2.402000000     4.263000000     3.316000000
H     1.952000000     3.326000000     3.636000000
C     4.313000000     5.694000000     2.914000000
H     5.386000000     5.862000000     2.963000000
C     3.477000000     6.702000000     2.356000000
H     3.975000000     7.548000000     1.890000000
C     2.078000000     6.544000000     2.394000000
H     1.392000000     7.327000000     2.081000000
C     1.555000000     5.344000000     2.885000000
O     0.195000000     5.209000000     2.803000000
C    -0.605000000     5.251000000     1.661000000
C    -1.991000000     5.567000000     1.772000000
H    -2.483000000     5.766000000     2.720000000
C    -2.796000000     5.540000000     0.659000000
O    -4.095000000     5.980000000     0.820000000
C    -5.114000000     5.251000000     0.155000000
C    -5.600000000     4.132000000     0.790000000
H    -5.105000000     3.808000000     1.702000000
C    -5.459000000     5.535000000    -1.124000000
H    -4.986000000     6.384000000    -1.611000000
C    -6.269000000     4.628000000    -1.899000000
H    -6.553000000     4.735000000    -2.943000000
C    -6.766000000     3.510000000    -1.226000000
H    -7.314000000     2.783000000    -1.821000000
C    -6.460000000     3.273000000     0.127000000
O    -6.760000000     2.092000000     0.808000000
C    -6.261000000     0.824000000     0.469000000
C    -6.726000000    -0.241000000     1.290000000
H    -7.522000000    -0.136000000     2.022000000
C    -6.156000000    -1.503000000     1.085000000
O    -6.412000000    -2.504000000     1.921000000
C    -5.448000000    -3.453000000     2.241000000
C    -4.235000000    -2.988000000     2.764000000
H    -4.089000000    -1.931000000     2.972000000
C    -5.611000000    -4.776000000     1.818000000
H    -6.516000000    -5.096000000     1.307000000
C    -4.583000000    -5.694000000     1.987000000
H    -4.596000000    -6.674000000     1.517000000
C    -3.312000000    -5.240000000     2.488000000
H    -2.566000000    -6.001000000     2.704000000
C    -3.186000000    -3.917000000     2.898000000
O    -2.185000000    -3.534000000     3.656000000
C    -0.857000000    -3.735000000     3.266000000
C     0.164000000    -3.836000000     4.221000000
H    -0.032000000    -3.702000000     5.282000000
C     1.547000000    -3.950000000     3.820000000
O     2.457000000    -3.893000000     4.826000000
C     3.793000000    -3.724000000     4.540000000
C     4.645000000    -4.869000000     4.526000000
H     4.321000000    -5.896000000     4.373000000
C     6.002000000    -4.632000000     4.385000000
H     6.634000000    -5.490000000     4.174000000
C     6.540000000    -3.341000000     4.437000000
H     7.608000000    -3.220000000     4.281000000
C     5.668000000    -2.215000000     4.395000000
C     4.280000000    -2.448000000     4.670000000
H     3.580000000    -1.638000000     4.857000000
C     0.408000000    -0.033000000     2.497000000
H     0.899000000     0.002000000     3.466000000
C     1.157000000    -0.574000000     1.481000000
H     2.172000000    -0.957000000     1.560000000
C     0.639000000    -0.342000000     0.172000000
H     1.157000000    -0.704000000    -0.691000000
C    -0.674000000     0.079000000     0.002000000
H    -1.096000000     0.131000000    -0.999000000
C    -1.357000000     0.710000000     1.079000000
H    -2.291000000     1.231000000     0.887000000
C    -0.807000000     0.652000000     2.320000000
C    -1.360000000     1.361000000     3.561000000
O    -2.360000000     2.112000000     3.447000000
O    -0.859000000     1.233000000     4.638000000
O    -3.429000000     4.641000000     7.409000000
H    -3.176000000     4.643000000     6.486000000
H    -3.655000000     3.729000000     7.594000000
O    -1.968000000    -1.229000000     5.502000000
H    -1.900000000    -1.653000000     4.646000000
H    -1.464000000    -0.421000000     5.410000000
O    -0.995000000    -2.459000000     7.718000000
H    -1.512000000    -3.258000000     7.817000000
H    -1.411000000    -1.992000000     6.993000000
O    -2.618000000     1.838000000     6.587000000
H    -1.826000000     1.757000000     6.055000000
H    -3.334000000     1.836000000     5.952000000
O    -5.222000000     1.756000000     8.258000000
H    -4.762000000     1.384000000     7.506000000
H    -4.571000000     2.310000000     8.688000000
O    -0.393000000     3.898000000     9.361000000
H    -0.444000000     4.795000000     9.691000000
H    -0.600000000     3.973000000     8.430000000
O     4.375000000     0.462000000     7.410000000
H     3.669000000     0.919000000     6.954000000
H     4.147000000     0.534000000     8.337000000
O    -2.237000000     4.668000000     4.886000000
H    -3.070000000     4.910000000     4.481000000
H    -2.050000000     3.794000000     4.543000000
O     1.066000000     1.609000000     9.789000000
H     1.088000000     1.006000000     9.045000000
H     0.437000000     2.283000000     9.532000000
O    -3.991000000    -2.206000000     7.141000000
H    -3.646000000    -1.652000000     7.841000000
H    -3.361000000    -2.110000000     6.427000000
O     2.058000000     3.767000000     7.480000000
H     1.861000000     3.052000000     6.874000000
H     1.344000000     4.392000000     7.354000000
O     1.437000000     1.511000000     6.325000000
H     1.364000000     0.647000000     6.729000000
H     0.828000000     1.482000000     5.587000000
O    -6.999000000    -0.813000000     6.602000000
H    -7.106000000    -0.233000000     5.848000000
H    -6.068000000    -1.035000000     6.603000000
O    -4.806000000     5.542000000     4.386000000
H    -5.629000000     5.728000000     3.935000000
H    -4.666000000     6.300000000     4.953000000
O    -4.633000000     2.679000000     4.602000000
H    -3.860000000     2.404000000     4.109000000
H    -4.752000000     3.599000000     4.368000000
O    -0.750000000     7.637000000     3.953000000
H    -0.669000000     6.718000000     3.699000000
H    -0.777000000     7.620000000     4.909000000
O    -6.768000000     1.155000000     4.892000000
H    -7.250000000     1.767000000     5.449000000
H    -5.935000000     1.593000000     4.720000000
O     1.167000000    -1.146000000     6.876000000
H     1.813000000    -1.851000000     6.850000000
H     0.377000000    -1.556000000     7.228000000
O    -0.273000000     5.138000000     6.834000000
H    -0.668000000     5.011000000     5.972000000
H    -0.342000000     6.080000000     6.992000000
