215
-1464.87482
C    -2.641000000     5.039000000    -0.450000000
H    -3.246000000     4.745000000    -1.304000000
C    -1.300000000     4.630000000    -0.466000000
C    -0.471000000     4.880000000     0.649000000
H     0.542000000     4.500000000     0.754000000
C    -0.798000000     3.747000000    -1.581000000
O    -1.570000000     3.990000000    -2.768000000
H    -0.869000000     2.670000000    -1.367000000
O     0.572000000     4.160000000    -1.949000000
C     1.492000000     3.307000000    -2.391000000
C     2.538000000     2.991000000    -1.562000000
H     2.699000000     3.551000000    -0.644000000
C     3.405000000     1.945000000    -1.822000000
O     4.329000000     1.690000000    -0.806000000
C     3.420000000     1.351000000    -3.098000000
C     4.384000000     0.307000000    -3.502000000
H     4.404000000     0.189000000    -4.588000000
C     3.869000000    -0.998000000    -2.853000000
C     3.087000000    -1.862000000    -3.622000000
H     2.833000000    -1.588000000    -4.642000000
H     5.378000000     0.610000000    -3.165000000
C     2.402000000     1.689000000    -4.006000000
H     2.348000000     1.382000000    -5.047000000
C     1.397000000     2.653000000    -3.621000000
C     0.313000000     2.922000000    -4.706000000
H     0.631000000     2.590000000    -5.697000000
H     0.291000000     4.002000000    -4.863000000
C    -1.026000000     2.299000000    -4.373000000
C    -1.366000000     1.070000000    -4.946000000
H    -0.738000000     0.586000000    -5.690000000
C    -1.868000000     2.815000000    -3.365000000
C    -2.987000000     2.089000000    -3.000000000
H    -3.613000000     2.613000000    -2.283000000
C    -3.128000000     0.775000000    -3.370000000
O    -4.123000000     0.050000000    -2.818000000
C    -3.700000000    -0.856000000    -1.816000000
C    -4.584000000    -0.774000000    -0.579000000
C    -4.828000000    -1.868000000     0.266000000
H    -4.355000000    -2.804000000    -0.018000000
C    -5.056000000     0.511000000    -0.277000000
H    -4.879000000     1.390000000    -0.891000000
O    -3.660000000    -2.169000000    -2.403000000
H    -2.711000000    -0.548000000    -1.446000000
C    -2.351000000     0.237000000    -4.373000000
C    -2.575000000    -1.180000000    -4.858000000
H    -2.114000000    -1.274000000    -5.843000000
H    -3.646000000    -1.390000000    -4.811000000
C    -1.856000000    -2.171000000    -3.926000000
C    -0.549000000    -2.580000000    -4.235000000
H    -0.120000000    -2.117000000    -5.120000000
C    -2.454000000    -2.699000000    -2.818000000
C    -1.801000000    -3.538000000    -1.953000000
H    -2.271000000    -3.874000000    -1.032000000
C    -0.596000000    -4.079000000    -2.273000000
O     0.076000000    -4.841000000    -1.305000000
C     1.086000000    -4.196000000    -0.528000000
C     1.004000000    -4.385000000     0.989000000
C    -0.165000000    -4.025000000     1.632000000
H    -1.045000000    -3.692000000     1.087000000
C     2.154000000    -4.713000000     1.770000000
H     3.023000000    -4.933000000     1.155000000
O     2.413000000    -4.411000000    -1.021000000
H     0.816000000    -3.147000000    -0.718000000
C     0.054000000    -3.551000000    -3.425000000
C     1.549000000    -3.885000000    -3.749000000
H     1.687000000    -3.721000000    -4.820000000
H     1.713000000    -4.935000000    -3.499000000
C     2.596000000    -3.045000000    -3.026000000
C     2.966000000    -3.412000000    -1.720000000
C     3.836000000    -2.529000000    -0.995000000
H     4.130000000    -2.726000000     0.033000000
C     4.260000000    -1.328000000    -1.541000000
O     4.971000000    -0.493000000    -0.676000000
C     4.181000000     0.508000000    -0.076000000
H     3.108000000     0.266000000    -0.086000000
C     4.425000000     0.655000000     1.409000000
C     3.903000000     1.747000000     2.131000000
H     3.434000000     2.479000000     1.479000000
C     5.045000000    -0.365000000     2.151000000
H     5.503000000    -1.231000000     1.680000000
C     5.101000000    -0.235000000     3.552000000
O     5.864000000    -1.092000000     4.359000000
C     4.602000000     0.873000000     4.199000000
H     4.619000000     0.933000000     5.284000000
C     4.036000000     1.944000000     3.518000000
O     3.517000000     3.089000000     4.155000000
C     3.047000000     4.229000000     3.582000000
C     1.730000000     4.634000000     3.698000000
H     0.977000000     4.161000000     4.323000000
C     3.938000000     4.854000000     2.686000000
H     4.981000000     4.557000000     2.609000000
C     3.470000000     5.893000000     1.834000000
H     4.142000000     6.399000000     1.145000000
C     2.084000000     6.239000000     1.921000000
H     1.651000000     7.051000000     1.343000000
C     1.243000000     5.571000000     2.791000000
O    -0.111000000     5.814000000     2.807000000
C    -0.996000000     5.587000000     1.750000000
C    -2.285000000     6.148000000     1.705000000
H    -2.746000000     6.662000000     2.544000000
C    -3.127000000     5.731000000     0.663000000
O    -4.471000000     6.106000000     0.631000000
C    -5.346000000     5.140000000     0.223000000
C    -5.492000000     3.971000000     0.912000000
H    -4.971000000     3.820000000     1.854000000
C    -5.981000000     5.287000000    -1.016000000
H    -5.732000000     6.135000000    -1.649000000
C    -6.667000000     4.183000000    -1.566000000
H    -7.010000000     4.182000000    -2.597000000
C    -6.916000000     3.013000000    -0.824000000
H    -7.470000000     2.168000000    -1.223000000
C    -6.328000000     2.932000000     0.458000000
O    -6.464000000     1.801000000     1.220000000
C    -5.887000000     0.665000000     0.815000000
C    -6.193000000    -0.464000000     1.622000000
H    -6.758000000    -0.276000000     2.532000000
C    -5.551000000    -1.659000000     1.441000000
O    -5.829000000    -2.730000000     2.292000000
C    -4.868000000    -3.656000000     2.557000000
C    -3.576000000    -3.297000000     2.893000000
H    -3.371000000    -2.243000000     3.058000000
C    -5.155000000    -5.054000000     2.495000000
H    -6.136000000    -5.446000000     2.239000000
C    -4.183000000    -6.013000000     2.751000000
H    -4.523000000    -7.044000000     2.802000000
C    -2.918000000    -5.613000000     3.012000000
H    -2.181000000    -6.366000000     3.280000000
C    -2.619000000    -4.256000000     3.156000000
O    -1.454000000    -3.851000000     3.735000000
C    -0.268000000    -4.095000000     3.069000000
C     0.913000000    -4.445000000     3.783000000
H     0.810000000    -4.554000000     4.860000000
C     2.145000000    -4.658000000     3.147000000
O     3.185000000    -5.098000000     3.861000000
C     4.370000000    -4.399000000     4.096000000
C     5.472000000    -5.181000000     4.376000000
H     5.446000000    -6.268000000     4.371000000
C     6.762000000    -4.630000000     4.451000000
H     7.675000000    -5.218000000     4.487000000
C     6.883000000    -3.191000000     4.455000000
H     7.789000000    -2.598000000     4.359000000
C     5.708000000    -2.434000000     4.245000000
C     4.498000000    -3.055000000     4.014000000
H     3.690000000    -2.347000000     3.853000000
C     0.316000000    -0.216000000     2.432000000
H     0.612000000    -0.543000000     3.426000000
C     1.058000000    -0.665000000     1.333000000
H     1.987000000    -1.218000000     1.445000000
C     0.562000000    -0.442000000     0.002000000
H     1.266000000    -0.750000000    -0.798000000
C    -0.688000000     0.193000000    -0.234000000
H    -0.950000000     0.306000000    -1.282000000
C    -1.443000000     0.594000000     0.850000000
H    -2.385000000     1.121000000     0.724000000
C    -0.940000000     0.381000000     2.187000000
C    -1.938000000     0.790000000     3.348000000
O    -2.909000000     1.494000000     3.218000000
O    -1.820000000     0.462000000     4.507000000
O    -0.589000000    -1.622000000     5.257000000
H    -1.062000000    -0.836000000     4.984000000
H    -0.887000000    -2.302000000     4.652000000
O     1.278000000     2.450000000     9.301000000
H     1.353000000     2.043000000     8.437000000
H     0.734000000     3.224000000     9.155000000
O    -1.799000000    -0.472000000     8.325000000
H    -1.123000000    -1.121000000     8.517000000
H    -1.402000000     0.366000000     8.563000000
O    -3.052000000    -2.886000000     6.051000000
H    -2.213000000    -2.571000000     6.385000000
H    -3.524000000    -2.092000000     5.802000000
O    -7.338000000     3.905000000     4.777000000
H    -6.813000000     3.105000000     4.778000000
H    -7.633000000     3.998000000     5.683000000
O     1.798000000    -2.087000000     6.250000000
H     1.759000000    -2.886000000     6.775000000
H     0.883000000    -1.886000000     6.051000000
O    -4.159000000    -0.244000000     5.187000000
H    -3.252000000     0.025000000     5.043000000
H    -4.667000000     0.293000000     4.579000000
O    -4.678000000     0.648000000     7.790000000
H    -3.753000000     0.509000000     7.991000000
H    -4.816000000     0.187000000     6.963000000
O    -1.613000000     3.965000000     8.142000000
H    -2.211000000     3.318000000     8.517000000
H    -1.005000000     3.450000000     7.612000000
O    -2.165000000     3.798000000     4.484000000
H    -2.312000000     3.039000000     3.921000000
H    -2.990000000     4.282000000     4.455000000
O    -4.963000000    -5.100000000     6.157000000
H    -5.158000000    -5.281000000     5.237000000
H    -4.298000000    -4.411000000     6.129000000
O    -0.619000000     2.115000000     6.223000000
H    -1.036000000     1.293000000     5.965000000
H    -0.693000000     2.674000000     5.449000000
O    -4.104000000     5.521000000     4.989000000
H    -4.078000000     6.342000000     4.497000000
H    -4.721000000     5.688000000     5.702000000
O    -5.417000000     1.804000000     3.716000000
H    -4.465000000     1.784000000     3.616000000
H    -5.747000000     1.973000000     2.834000000
O    -6.305000000     3.200000000     7.490000000
H    -5.761000000     3.875000000     7.894000000
H    -5.708000000     2.467000000     7.342000000
O    -7.850000000     0.782000000     4.718000000
H    -6.998000000     0.910000000     4.300000000
H    -7.667000000     0.208000000     5.462000000
O    -4.090000000    -1.364000000     9.726000000
H    -4.536000000    -2.179000000     9.494000000
H    -3.351000000    -1.314000000     9.119000000
O     1.617000000     0.589000000     7.202000000
H     0.995000000     0.866000000     6.529000000
H     1.827000000    -0.317000000     6.975000000
O    -0.701000000     5.693000000     5.782000000
H    -1.236000000     5.052000000     5.314000000
H    -0.760000000     5.429000000     6.700000000
