215
-1450.59553
C    -2.563000000     4.566000000    -1.022000000
H    -2.963000000     4.122000000    -1.930000000
C    -1.162000000     4.427000000    -0.842000000
C    -0.479000000     4.927000000     0.325000000
H     0.592000000     4.877000000     0.508000000
C    -0.315000000     3.745000000    -1.935000000
O    -1.008000000     3.716000000    -3.158000000
H    -0.176000000     2.697000000    -1.632000000
O     0.944000000     4.356000000    -1.974000000
C     2.076000000     3.522000000    -2.073000000
C     2.924000000     3.519000000    -0.944000000
H     2.687000000     4.167000000    -0.104000000
C     3.727000000     2.381000000    -0.831000000
O     4.224000000     2.081000000     0.419000000
C     4.075000000     1.633000000    -1.967000000
C     5.162000000     0.542000000    -1.944000000
H     5.638000000     0.331000000    -2.904000000
C     4.542000000    -0.816000000    -1.501000000
C     4.003000000    -1.734000000    -2.449000000
H     3.867000000    -1.527000000    -3.508000000
H     5.922000000     0.845000000    -1.221000000
C     3.421000000     1.878000000    -3.182000000
H     3.599000000     1.251000000    -4.052000000
C     2.351000000     2.768000000    -3.215000000
C     1.496000000     2.886000000    -4.490000000
H     2.000000000     2.445000000    -5.353000000
H     1.297000000     3.926000000    -4.760000000
C     0.197000000     2.076000000    -4.421000000
C     0.142000000     0.864000000    -5.125000000
H     1.008000000     0.584000000    -5.720000000
C    -0.943000000     2.601000000    -3.886000000
C    -2.045000000     1.777000000    -3.756000000
H    -2.920000000     2.193000000    -3.264000000
C    -2.066000000     0.421000000    -4.181000000
O    -3.212000000    -0.310000000    -3.834000000
C    -3.069000000    -1.159000000    -2.797000000
C    -4.304000000    -1.219000000    -1.948000000
C    -4.495000000    -2.229000000    -0.981000000
H    -3.834000000    -3.091000000    -1.018000000
C    -5.149000000    -0.084000000    -1.819000000
H    -5.093000000     0.664000000    -2.606000000
O    -2.742000000    -2.413000000    -3.339000000
H    -2.203000000    -0.825000000    -2.207000000
C    -0.979000000     0.026000000    -4.964000000
C    -0.920000000    -1.454000000    -5.316000000
H    -0.134000000    -1.543000000    -6.069000000
H    -1.847000000    -1.770000000    -5.799000000
C    -0.466000000    -2.345000000    -4.135000000
C     0.894000000    -2.602000000    -3.969000000
H     1.671000000    -2.197000000    -4.612000000
C    -1.398000000    -2.781000000    -3.207000000
C    -1.013000000    -3.574000000    -2.170000000
H    -1.735000000    -3.928000000    -1.439000000
C     0.344000000    -3.967000000    -2.084000000
O     0.673000000    -4.766000000    -1.012000000
C     1.213000000    -4.177000000     0.142000000
C     0.751000000    -4.764000000     1.442000000
C    -0.530000000    -5.328000000     1.542000000
H    -1.071000000    -5.369000000     0.600000000
C     1.462000000    -4.322000000     2.564000000
H     2.402000000    -3.783000000     2.476000000
O     2.665000000    -4.187000000     0.075000000
H     0.972000000    -3.105000000     0.204000000
C     1.297000000    -3.610000000    -3.030000000
C     2.778000000    -3.889000000    -2.882000000
H     3.266000000    -3.747000000    -3.849000000
H     2.853000000    -4.935000000    -2.577000000
C     3.486000000    -2.946000000    -1.937000000
C     3.459000000    -3.203000000    -0.506000000
C     4.052000000    -2.325000000     0.365000000
H     3.999000000    -2.592000000     1.418000000
C     4.462000000    -1.071000000    -0.076000000
O     4.753000000    -0.153000000     0.928000000
C     3.856000000     0.911000000     1.194000000
H     2.771000000     0.786000000     1.062000000
C     3.850000000     1.163000000     2.707000000
C     3.467000000     2.471000000     3.148000000
H     3.159000000     3.167000000     2.372000000
C     4.151000000     0.201000000     3.657000000
H     4.426000000    -0.805000000     3.350000000
C     4.037000000     0.532000000     5.038000000
O     4.197000000    -0.421000000     6.042000000
C     3.757000000     1.862000000     5.453000000
H     3.735000000     2.179000000     6.493000000
C     3.373000000     2.880000000     4.492000000
O     3.061000000     4.190000000     4.846000000
C     2.515000000     5.127000000     4.004000000
C     1.188000000     5.017000000     3.558000000
H     0.658000000     4.103000000     3.812000000
C     3.242000000     6.272000000     3.720000000
H     4.186000000     6.467000000     4.222000000
C     2.619000000     7.357000000     3.065000000
H     3.086000000     8.304000000     2.807000000
C     1.316000000     7.183000000     2.552000000
H     0.929000000     8.025000000     1.984000000
C     0.579000000     6.012000000     2.802000000
O    -0.766000000     5.943000000     2.469000000
C    -1.314000000     5.403000000     1.294000000
C    -2.679000000     5.500000000     1.155000000
H    -3.305000000     5.888000000     1.954000000
C    -3.320000000     5.061000000    -0.004000000
O    -4.691000000     5.203000000    -0.173000000
C    -5.501000000     4.430000000    -0.949000000
C    -5.795000000     3.149000000    -0.469000000
H    -5.451000000     2.771000000     0.490000000
C    -5.901000000     4.861000000    -2.228000000
H    -5.559000000     5.829000000    -2.584000000
C    -6.651000000     4.000000000    -3.022000000
H    -6.948000000     4.337000000    -4.012000000
C    -7.012000000     2.814000000    -2.523000000
H    -7.669000000     2.197000000    -3.130000000
C    -6.607000000     2.373000000    -1.272000000
O    -6.993000000     1.096000000    -0.860000000
C    -6.134000000     0.023000000    -0.852000000
C    -6.266000000    -0.970000000     0.081000000
H    -6.825000000    -0.789000000     0.996000000
C    -5.380000000    -2.074000000     0.099000000
O    -5.608000000    -3.048000000     1.068000000
C    -4.945000000    -4.312000000     1.046000000
C    -3.900000000    -4.551000000     1.914000000
H    -3.700000000    -3.812000000     2.685000000
C    -5.369000000    -5.249000000     0.160000000
H    -6.195000000    -5.062000000    -0.521000000
C    -4.728000000    -6.456000000     0.159000000
H    -5.042000000    -7.219000000    -0.548000000
C    -3.700000000    -6.803000000     1.067000000
H    -3.252000000    -7.791000000     0.994000000
C    -3.267000000    -5.826000000     1.953000000
O    -2.297000000    -6.100000000     2.986000000
C    -1.080000000    -5.541000000     2.799000000
C    -0.389000000    -5.120000000     3.966000000
H    -0.870000000    -5.198000000     4.937000000
C     0.864000000    -4.565000000     3.804000000
O     1.490000000    -4.151000000     4.993000000
C     2.785000000    -3.642000000     5.141000000
C     3.890000000    -4.361000000     4.780000000
H     3.744000000    -5.387000000     4.450000000
C     5.188000000    -3.821000000     4.959000000
H     6.046000000    -4.426000000     4.677000000
C     5.270000000    -2.481000000     5.312000000
H     6.207000000    -1.932000000     5.342000000
C     4.108000000    -1.763000000     5.793000000
C     2.856000000    -2.396000000     5.723000000
H     1.930000000    -1.920000000     6.032000000
C    -2.487000000    -1.222000000     1.882000000
H    -2.498000000    -2.004000000     2.637000000
C    -1.404000000    -1.375000000     1.006000000
H    -0.756000000    -2.223000000     1.209000000
C    -1.168000000    -0.424000000     0.026000000
H    -0.272000000    -0.540000000    -0.642000000
C    -2.011000000     0.697000000    -0.090000000
H    -1.890000000     1.279000000    -1.001000000
C    -3.083000000     0.833000000     0.785000000
H    -3.723000000     1.711000000     0.763000000
C    -3.323000000    -0.088000000     1.833000000
C    -4.508000000     0.118000000     2.804000000
O    -5.271000000     1.015000000     2.581000000
O    -4.624000000    -0.650000000     3.745000000
O    -4.185000000     3.219000000     3.999000000
H    -4.758000000     2.913000000     4.702000000
H    -4.272000000     2.557000000     3.313000000
O    -6.484000000     4.568000000     2.982000000
H    -6.458000000     4.591000000     3.939000000
H    -5.572000000     4.442000000     2.721000000
O    -3.148000000     0.506000000     5.661000000
H    -3.710000000     0.141000000     4.978000000
H    -3.455000000     0.094000000     6.469000000
O    -5.828000000    -0.625000000     8.825000000
H    -5.121000000    -1.134000000     8.428000000
H    -5.539000000    -0.476000000     9.725000000
O    -5.837000000     3.364000000     6.768000000
H    -5.517000000     4.233000000     7.008000000
H    -5.376000000     2.768000000     7.358000000
O    -3.701000000    -2.246000000     7.653000000
H    -2.763000000    -2.348000000     7.812000000
H    -3.904000000    -2.903000000     6.987000000
O    -2.269000000    -2.433000000     5.125000000
H    -1.607000000    -2.622000000     5.790000000
H    -2.187000000    -1.493000000     4.966000000
O    -9.861000000    -1.901000000     3.892000000
H    -8.923000000    -1.828000000     3.711000000
H   -10.049000000    -1.170000000     4.480000000
O    -6.544000000    -4.742000000     4.117000000
H    -6.592000000    -3.902000000     3.659000000
H    -7.253000000    -4.705000000     4.760000000
O    -9.613000000     0.339000000     0.888000000
H    -9.982000000     1.137000000     0.510000000
H    -9.145000000     0.637000000     1.668000000
O    -8.310000000    -3.589000000     0.671000000
H    -7.603000000    -3.061000000     1.041000000
H    -8.957000000    -3.649000000     1.373000000
O    -0.185000000     1.772000000     2.335000000
H    -0.786000000     1.331000000     1.735000000
H    -0.472000000     2.685000000     2.332000000
O    -4.050000000    -4.579000000     5.502000000
H    -3.534000000    -3.889000000     5.085000000
H    -4.670000000    -4.856000000     4.827000000
O    -0.623000000     0.623000000     4.872000000
H    -1.559000000     0.753000000     5.029000000
H    -0.480000000     0.960000000     3.988000000
O    -7.834000000     0.989000000     3.081000000
H    -7.920000000     1.307000000     3.979000000
H    -6.980000000     1.313000000     2.792000000
O    -2.384000000     4.889000000     5.377000000
H    -3.155000000     5.391000000     5.643000000
H    -2.713000000     4.277000000     4.718000000
O    -7.269000000    -1.660000000     3.487000000
H    -7.604000000    -0.788000000     3.279000000
H    -6.321000000    -1.543000000     3.553000000
O    -7.961000000     1.943000000     5.832000000
H    -7.092000000     2.307000000     6.004000000
H    -8.561000000     2.672000000     5.989000000
O    -8.848000000     4.548000000     1.443000000
H    -8.117000000     4.478000000     2.058000000
H    -8.733000000     5.403000000     1.030000000
