215
-1449.95177
C    -2.064000000     5.222000000    -0.963000000
H    -2.538000000     4.864000000    -1.874000000
C    -0.721000000     5.121000000    -0.814000000
C    -0.041000000     5.775000000     0.210000000
H     1.041000000     5.727000000     0.311000000
C     0.082000000     4.301000000    -1.768000000
O    -0.465000000     4.173000000    -3.088000000
H     0.014000000     3.296000000    -1.325000000
O     1.490000000     4.694000000    -1.785000000
C     2.436000000     3.695000000    -1.755000000
C     3.027000000     3.475000000    -0.566000000
H     2.767000000     3.974000000     0.365000000
C     3.837000000     2.377000000    -0.473000000
O     4.135000000     2.000000000     0.865000000
C     4.277000000     1.612000000    -1.602000000
C     5.241000000     0.471000000    -1.432000000
H     5.702000000     0.374000000    -2.417000000
C     4.569000000    -0.881000000    -1.027000000
C     4.173000000    -1.836000000    -1.992000000
H     4.358000000    -1.624000000    -3.042000000
H     6.083000000     0.761000000    -0.800000000
C     3.759000000     1.922000000    -2.844000000
H     3.985000000     1.296000000    -3.703000000
C     2.789000000     2.966000000    -2.927000000
C     2.181000000     3.199000000    -4.286000000
H     2.867000000     2.766000000    -5.017000000
H     1.992000000     4.248000000    -4.523000000
C     0.834000000     2.451000000    -4.268000000
C     0.812000000     1.136000000    -4.750000000
H     1.706000000     0.669000000    -5.155000000
C    -0.423000000     2.931000000    -3.675000000
C    -1.528000000     2.131000000    -3.545000000
H    -2.430000000     2.448000000    -3.028000000
C    -1.475000000     0.846000000    -4.071000000
O    -2.565000000     0.018000000    -3.780000000
C    -2.440000000    -1.063000000    -2.969000000
C    -3.584000000    -1.084000000    -2.016000000
C    -4.198000000    -2.305000000    -1.713000000
H    -4.069000000    -3.243000000    -2.246000000
C    -4.038000000     0.051000000    -1.347000000
H    -3.579000000     1.000000000    -1.613000000
O    -2.361000000    -2.325000000    -3.788000000
H    -1.538000000    -1.034000000    -2.340000000
C    -0.318000000     0.285000000    -4.750000000
C    -0.313000000    -1.051000000    -5.512000000
H     0.471000000    -1.087000000    -6.271000000
H    -1.265000000    -1.213000000    -6.022000000
C    -0.040000000    -2.137000000    -4.486000000
C     1.300000000    -2.470000000    -4.076000000
H     2.134000000    -1.839000000    -4.372000000
C    -1.054000000    -2.876000000    -3.902000000
C    -0.841000000    -3.854000000    -2.976000000
H    -1.683000000    -4.380000000    -2.535000000
C     0.409000000    -4.180000000    -2.558000000
O     0.528000000    -4.911000000    -1.371000000
C     1.030000000    -4.330000000    -0.123000000
C     0.271000000    -4.870000000     1.091000000
C    -0.909000000    -5.556000000     0.990000000
H    -1.282000000    -5.901000000     0.029000000
C     0.699000000    -4.365000000     2.320000000
H     1.614000000    -3.783000000     2.395000000
O     2.491000000    -4.429000000    -0.047000000
H     0.898000000    -3.239000000    -0.148000000
C     1.520000000    -3.506000000    -3.116000000
C     2.956000000    -3.904000000    -2.791000000
H     3.587000000    -3.686000000    -3.655000000
H     3.109000000    -4.937000000    -2.471000000
C     3.528000000    -3.022000000    -1.709000000
C     3.294000000    -3.337000000    -0.415000000
C     3.709000000    -2.468000000     0.539000000
H     3.435000000    -2.680000000     1.569000000
C     4.294000000    -1.235000000     0.319000000
O     4.552000000    -0.318000000     1.349000000
C     3.623000000     0.825000000     1.523000000
H     2.606000000     0.612000000     1.161000000
C     3.335000000     1.068000000     2.983000000
C     2.730000000     2.246000000     3.295000000
H     2.537000000     2.917000000     2.461000000
C     3.525000000     0.041000000     3.900000000
H     4.169000000    -0.795000000     3.640000000
C     3.089000000     0.321000000     5.187000000
O     3.367000000    -0.667000000     6.145000000
C     2.602000000     1.616000000     5.542000000
H     2.353000000     1.783000000     6.587000000
C     2.337000000     2.489000000     4.579000000
O     1.890000000     3.728000000     4.934000000
C     2.019000000     4.799000000     4.073000000
C     0.834000000     5.401000000     3.705000000
H    -0.076000000     4.914000000     4.047000000
C     3.227000000     5.376000000     3.695000000
H     4.101000000     4.906000000     4.139000000
C     3.299000000     6.519000000     2.894000000
H     4.272000000     6.744000000     2.464000000
C     2.095000000     7.169000000     2.509000000
H     2.104000000     7.983000000     1.788000000
C     0.927000000     6.539000000     2.880000000
O    -0.161000000     7.110000000     2.267000000
C    -0.790000000     6.419000000     1.233000000
C    -2.178000000     6.277000000     1.251000000
H    -2.834000000     6.570000000     2.066000000
C    -2.782000000     5.716000000     0.131000000
O    -4.105000000     5.636000000     0.156000000
C    -4.782000000     4.713000000    -0.479000000
C    -4.917000000     3.464000000     0.051000000
H    -4.397000000     3.372000000     1.002000000
C    -5.422000000     4.973000000    -1.703000000
H    -5.517000000     5.968000000    -2.129000000
C    -6.063000000     3.942000000    -2.363000000
H    -6.625000000     4.192000000    -3.260000000
C    -6.087000000     2.668000000    -1.858000000
H    -6.688000000     1.896000000    -2.331000000
C    -5.490000000     2.409000000    -0.635000000
O    -5.621000000     1.155000000    -0.006000000
C    -5.093000000     0.016000000    -0.539000000
C    -5.782000000    -1.198000000    -0.274000000
H    -6.688000000    -1.250000000     0.325000000
C    -5.343000000    -2.359000000    -0.830000000
O    -6.090000000    -3.507000000    -0.725000000
C    -5.546000000    -4.710000000    -0.165000000
C    -4.476000000    -4.697000000     0.751000000
H    -4.241000000    -3.742000000     1.216000000
C    -6.064000000    -5.829000000    -0.721000000
H    -6.929000000    -5.714000000    -1.370000000
C    -5.579000000    -7.062000000    -0.327000000
H    -5.944000000    -8.013000000    -0.707000000
C    -4.475000000    -7.135000000     0.557000000
H    -4.048000000    -8.081000000     0.880000000
C    -3.948000000    -5.932000000     1.083000000
O    -3.035000000    -6.074000000     2.103000000
C    -1.764000000    -5.609000000     2.095000000
C    -1.304000000    -5.163000000     3.326000000
H    -1.999000000    -5.290000000     4.152000000
C    -0.080000000    -4.593000000     3.451000000
O     0.212000000    -3.918000000     4.605000000
C     1.505000000    -3.633000000     5.077000000
C     2.480000000    -4.588000000     5.186000000
H     2.332000000    -5.611000000     4.849000000
C     3.738000000    -4.275000000     5.664000000
H     4.482000000    -5.065000000     5.723000000
C     4.081000000    -2.923000000     5.857000000
H     5.087000000    -2.621000000     6.136000000
C     3.071000000    -1.937000000     5.755000000
C     1.750000000    -2.272000000     5.379000000
H     0.978000000    -1.524000000     5.220000000
C    -0.398000000    -0.619000000     2.000000000
H    -0.296000000    -1.243000000     2.885000000
C     0.614000000    -0.870000000     1.118000000
H     1.416000000    -1.562000000     1.363000000
C     0.507000000    -0.217000000    -0.143000000
H     1.324000000    -0.252000000    -0.798000000
C    -0.469000000     0.667000000    -0.382000000
H    -0.379000000     1.174000000    -1.339000000
C    -1.414000000     0.998000000     0.553000000
H    -2.141000000     1.759000000     0.278000000
C    -1.442000000     0.277000000     1.764000000
C    -2.498000000     0.683000000     2.751000000
O    -3.226000000     1.617000000     2.537000000
O    -2.620000000     0.066000000     3.808000000
O    -7.448000000     4.003000000     4.623000000
H    -7.281000000     3.144000000     4.235000000
H    -6.601000000     4.447000000     4.598000000
O    -1.773000000    -1.017000000     6.401000000
H    -2.007000000    -0.951000000     5.475000000
H    -1.862000000    -1.948000000     6.605000000
O    -5.572000000     1.431000000     5.887000000
H    -5.072000000     0.642000000     6.096000000
H    -5.454000000     1.547000000     4.944000000
O    -4.796000000    -3.882000000     3.764000000
H    -4.675000000    -2.937000000     3.856000000
H    -4.869000000    -4.203000000     4.662000000
O    -8.421000000     1.513000000     1.534000000
H    -7.643000000     1.664000000     2.072000000
H    -8.324000000     0.614000000     1.221000000
O    -1.180000000    -3.780000000     7.219000000
H    -0.507000000    -3.963000000     7.875000000
H    -1.076000000    -4.475000000     6.569000000
O    -2.058000000     1.641000000     9.591000000
H    -2.740000000     1.048000000     9.907000000
H    -1.243000000     1.268000000     9.926000000
O    -7.351000000    -2.421000000     4.039000000
H    -6.560000000    -1.922000000     3.833000000
H    -7.527000000    -2.221000000     4.958000000
O    -8.718000000    -1.327000000     2.124000000
H    -8.415000000    -1.737000000     2.934000000
H    -9.673000000    -1.381000000     2.171000000
O    -5.933000000     3.459000000     7.628000000
H    -6.693000000     3.904000000     7.252000000
H    -5.848000000     2.655000000     7.116000000
O    -2.736000000     3.801000000     4.179000000
H    -2.737000000     3.231000000     4.948000000
H    -2.833000000     3.204000000     3.437000000
O    -2.393000000     1.797000000     5.835000000
H    -2.189000000     1.070000000     5.246000000
H    -3.060000000     1.447000000     6.425000000
O    -4.349000000    -0.933000000     6.808000000
H    -3.495000000    -0.826000000     7.227000000
H    -4.784000000    -1.613000000     7.322000000
O    -5.892000000     1.506000000     3.062000000
H    -5.993000000     0.560000000     2.952000000
H    -4.952000000     1.659000000     2.967000000
O    -5.076000000     5.219000000     4.171000000
H    -4.813000000     6.132000000     4.047000000
H    -4.303000000     4.796000000     4.546000000
O    -4.891000000    -0.995000000     4.311000000
H    -4.168000000    -0.445000000     4.011000000
H    -4.789000000    -1.028000000     5.262000000
O    -0.160000000     1.678000000     7.700000000
H    -0.725000000     1.667000000     6.927000000
H    -0.580000000     2.301000000     8.294000000
O     0.126000000    -1.018000000     8.472000000
H     0.340000000    -0.098000000     8.321000000
H    -0.475000000    -1.244000000     7.761000000
O    -1.488000000     6.527000000     6.264000000
H    -1.480000000     5.675000000     5.827000000
H    -0.951000000     6.401000000     7.046000000
