215
-1472.84794
C    -1.928000000     4.282000000    -0.817000000
H    -2.266000000     3.423000000    -1.390000000
C    -0.615000000     4.635000000    -1.098000000
C     0.017000000     5.553000000    -0.293000000
H     1.013000000     5.879000000    -0.582000000
C     0.144000000     3.798000000    -2.102000000
O    -0.741000000     3.511000000    -3.261000000
H     0.381000000     2.852000000    -1.594000000
O     1.426000000     4.380000000    -2.550000000
C     2.540000000     3.590000000    -2.647000000
C     3.238000000     3.456000000    -1.458000000
H     3.026000000     4.100000000    -0.609000000
C     4.051000000     2.361000000    -1.285000000
O     4.521000000     2.155000000     0.007000000
C     4.174000000     1.332000000    -2.283000000
C     5.053000000     0.151000000    -2.043000000
H     5.532000000    -0.159000000    -2.974000000
C     4.318000000    -0.966000000    -1.376000000
C     3.984000000    -2.028000000    -2.191000000
H     4.053000000    -1.972000000    -3.274000000
H     5.896000000     0.482000000    -1.432000000
C     3.442000000     1.501000000    -3.454000000
H     3.456000000     0.724000000    -4.214000000
C     2.532000000     2.526000000    -3.587000000
C     1.601000000     2.580000000    -4.798000000
H     2.240000000     2.238000000    -5.615000000
H     1.297000000     3.590000000    -5.079000000
C     0.440000000     1.722000000    -4.542000000
C     0.389000000     0.457000000    -5.037000000
H     1.225000000     0.036000000    -5.591000000
C    -0.670000000     2.234000000    -3.817000000
C    -1.795000000     1.432000000    -3.752000000
H    -2.641000000     1.977000000    -3.340000000
C    -1.814000000     0.108000000    -4.075000000
O    -2.968000000    -0.625000000    -3.852000000
C    -2.887000000    -1.496000000    -2.684000000
C    -4.128000000    -1.432000000    -1.727000000
C    -4.567000000    -2.544000000    -0.958000000
H    -4.106000000    -3.512000000    -1.137000000
C    -4.841000000    -0.260000000    -1.537000000
H    -4.455000000     0.658000000    -1.973000000
O    -2.662000000    -2.796000000    -3.171000000
H    -2.059000000    -1.212000000    -2.019000000
C    -0.675000000    -0.423000000    -4.803000000
C    -0.704000000    -1.907000000    -5.238000000
H     0.021000000    -2.035000000    -6.044000000
H    -1.699000000    -2.170000000    -5.603000000
C    -0.345000000    -2.802000000    -4.044000000
C     0.976000000    -3.272000000    -3.908000000
H     1.744000000    -2.918000000    -4.591000000
C    -1.364000000    -3.321000000    -3.175000000
C    -0.934000000    -4.011000000    -2.070000000
H    -1.602000000    -4.282000000    -1.256000000
C     0.374000000    -4.407000000    -1.869000000
O     0.618000000    -5.089000000    -0.706000000
C     1.215000000    -4.314000000     0.349000000
C     0.598000000    -4.755000000     1.699000000
C    -0.809000000    -5.122000000     1.769000000
H    -1.378000000    -5.258000000     0.854000000
C     1.395000000    -4.606000000     2.868000000
H     2.440000000    -4.305000000     2.860000000
O     2.582000000    -4.398000000     0.300000000
H     0.965000000    -3.245000000     0.276000000
C     1.334000000    -4.065000000    -2.805000000
C     2.861000000    -4.356000000    -2.508000000
H     3.330000000    -4.426000000    -3.492000000
H     3.056000000    -5.354000000    -2.113000000
C     3.413000000    -3.190000000    -1.608000000
C     3.228000000    -3.282000000    -0.266000000
C     3.552000000    -2.253000000     0.606000000
H     3.505000000    -2.440000000     1.676000000
C     4.091000000    -1.084000000     0.029000000
O     4.562000000    -0.026000000     0.836000000
C     3.815000000     1.184000000     0.804000000
H     2.894000000     1.001000000     0.231000000
C     3.511000000     1.651000000     2.234000000
C     3.566000000     2.966000000     2.644000000
H     3.943000000     3.699000000     1.935000000
C     2.990000000     0.773000000     3.105000000
H     2.944000000    -0.279000000     2.838000000
C     2.535000000     1.172000000     4.352000000
O     2.115000000     0.213000000     5.238000000
C     2.626000000     2.470000000     4.762000000
H     2.247000000     2.784000000     5.732000000
C     3.023000000     3.424000000     3.841000000
O     3.062000000     4.755000000     4.211000000
C     2.795000000     5.780000000     3.255000000
C     1.547000000     5.847000000     2.664000000
H     0.791000000     5.092000000     2.866000000
C     3.741000000     6.744000000     3.044000000
H     4.760000000     6.676000000     3.415000000
C     3.349000000     7.838000000     2.223000000
H     4.110000000     8.549000000     1.910000000
C     2.066000000     7.992000000     1.665000000
H     1.896000000     8.795000000     0.953000000
C     1.148000000     7.011000000     1.951000000
O    -0.134000000     7.118000000     1.549000000
C    -0.718000000     6.193000000     0.703000000
C    -2.067000000     5.785000000     0.921000000
H    -2.645000000     6.325000000     1.666000000
C    -2.713000000     4.824000000     0.186000000
O    -3.975000000     4.463000000     0.510000000
C    -4.873000000     3.974000000    -0.371000000
C    -5.420000000     2.718000000    -0.097000000
H    -5.152000000     2.041000000     0.710000000
C    -5.225000000     4.722000000    -1.524000000
H    -4.748000000     5.670000000    -1.761000000
C    -6.293000000     4.269000000    -2.356000000
H    -6.560000000     4.889000000    -3.209000000
C    -6.889000000     2.953000000    -2.077000000
H    -7.628000000     2.483000000    -2.721000000
C    -6.389000000     2.201000000    -0.967000000
O    -6.842000000     0.942000000    -0.748000000
C    -5.975000000    -0.251000000    -0.796000000
C    -6.463000000    -1.367000000    -0.171000000
H    -7.387000000    -1.342000000     0.402000000
C    -5.656000000    -2.499000000    -0.127000000
O    -6.145000000    -3.630000000     0.502000000
C    -5.305000000    -4.659000000     0.997000000
C    -4.196000000    -4.521000000     1.763000000
H    -3.833000000    -3.514000000     1.953000000
C    -5.751000000    -5.927000000     0.684000000
H    -6.614000000    -6.190000000     0.078000000
C    -5.062000000    -7.079000000     1.174000000
H    -5.537000000    -8.057000000     1.162000000
C    -3.984000000    -6.945000000     1.990000000
H    -3.554000000    -7.802000000     2.503000000
C    -3.548000000    -5.648000000     2.335000000
O    -2.596000000    -5.604000000     3.316000000
C    -1.320000000    -5.307000000     3.059000000
C    -0.531000000    -5.136000000     4.210000000
H    -1.006000000    -5.231000000     5.183000000
C     0.778000000    -4.766000000     4.140000000
O     1.488000000    -4.502000000     5.280000000
C     2.351000000    -3.391000000     5.418000000
C     3.645000000    -3.571000000     5.874000000
H     4.083000000    -4.559000000     5.986000000
C     4.437000000    -2.455000000     6.206000000
H     5.481000000    -2.583000000     6.481000000
C     3.924000000    -1.217000000     5.866000000
H     4.586000000    -0.360000000     5.974000000
C     2.620000000    -1.048000000     5.421000000
C     1.818000000    -2.147000000     5.161000000
H     0.800000000    -2.000000000     4.811000000
C    -1.559000000    -1.221000000     2.426000000
H    -1.935000000    -1.937000000     3.152000000
C    -0.321000000    -1.256000000     1.765000000
H     0.452000000    -1.928000000     2.131000000
C    -0.002000000    -0.435000000     0.720000000
H     1.023000000    -0.498000000     0.312000000
C    -0.921000000     0.433000000     0.224000000
H    -0.715000000     1.093000000    -0.615000000
C    -2.177000000     0.521000000     0.895000000
H    -2.851000000     1.258000000     0.465000000
C    -2.497000000    -0.348000000     1.991000000
C    -3.849000000    -0.232000000     2.759000000
O    -4.639000000     0.626000000     2.544000000
O    -4.135000000    -1.083000000     3.565000000
O    -2.923000000     2.653000000     3.270000000
H    -3.570000000     1.967000000     3.101000000
H    -2.998000000     3.243000000     2.521000000
O    -7.694000000     1.743000000     6.398000000
H    -7.306000000     1.032000000     6.908000000
H    -7.446000000     1.553000000     5.494000000
O    -3.962000000    -0.178000000     6.058000000
H    -3.977000000    -0.276000000     5.106000000
H    -4.863000000    -0.351000000     6.331000000
O    -5.157000000     2.437000000     6.999000000
H    -6.052000000     2.254000000     6.713000000
H    -4.671000000     1.639000000     6.792000000
O    -4.322000000    -2.942000000     5.750000000
H    -4.080000000    -2.368000000     5.023000000
H    -3.506000000    -3.070000000     6.235000000
O    -1.254000000    -0.299000000     7.151000000
H    -0.906000000     0.323000000     6.512000000
H    -2.188000000    -0.356000000     6.946000000
O    -8.659000000     0.198000000     2.301000000
H    -9.321000000     0.605000000     1.742000000
H    -8.132000000     0.930000000     2.620000000
O    -6.669000000    -0.756000000     6.157000000
H    -7.311000000    -1.257000000     6.661000000
H    -6.696000000    -1.144000000     5.283000000
O    -6.717000000     1.917000000     3.857000000
H    -6.125000000     1.317000000     3.403000000
H    -6.265000000     2.760000000     3.837000000
O    -3.643000000     4.438000000     8.317000000
H    -3.458000000     3.817000000     7.612000000
H    -4.568000000     4.656000000     8.207000000
O    -0.767000000     1.912000000     5.055000000
H    -1.559000000     2.009000000     4.525000000
H    -0.182000000     1.380000000     4.517000000
O    -9.176000000    -3.664000000     6.283000000
H    -8.705000000    -3.091000000     5.678000000
H    -9.659000000    -4.265000000     5.716000000
O    -3.326000000    -5.685000000     6.473000000
H    -2.829000000    -5.021000000     6.952000000
H    -4.049000000    -5.201000000     6.075000000
O    -6.246000000    -4.426000000     7.042000000
H    -5.566000000    -3.916000000     6.603000000
H    -7.061000000    -3.971000000     6.832000000
O    -2.626000000     5.818000000     4.466000000
H    -3.115000000     5.135000000     4.926000000
H    -1.751000000     5.788000000     4.854000000
O    -6.741000000    -1.610000000     3.396000000
H    -7.318000000    -0.976000000     2.970000000
H    -5.862000000    -1.249000000     3.280000000
O    -7.234000000    -4.325000000     3.698000000
H    -6.307000000    -4.497000000     3.862000000
H    -7.257000000    -3.423000000     3.377000000
O    -1.842000000    -3.127000000     6.863000000
H    -1.357000000    -2.303000000     6.891000000
H    -1.293000000    -3.745000000     7.345000000
O     0.019000000     4.443000000     5.789000000
H     0.848000000     4.675000000     6.208000000
H     0.115000000     3.518000000     5.563000000
