215
-1454.52595
C    -2.657000000     4.546000000    -1.031000000
H    -2.981000000     4.250000000    -2.025000000
C    -1.287000000     4.596000000    -0.764000000
C    -0.883000000     4.923000000     0.589000000
H     0.158000000     4.923000000     0.903000000
C    -0.327000000     4.058000000    -1.759000000
O    -0.950000000     3.986000000    -3.015000000
H    -0.156000000     3.013000000    -1.460000000
O     0.964000000     4.736000000    -1.804000000
C     2.080000000     3.896000000    -1.916000000
C     2.807000000     3.646000000    -0.734000000
H     2.387000000     4.178000000     0.116000000
C     3.786000000     2.606000000    -0.688000000
O     4.372000000     2.263000000     0.569000000
C     4.089000000     1.956000000    -1.892000000
C     5.237000000     0.846000000    -1.891000000
H     5.698000000     0.736000000    -2.875000000
C     4.603000000    -0.525000000    -1.431000000
C     4.124000000    -1.481000000    -2.361000000
H     4.148000000    -1.246000000    -3.422000000
H     6.047000000     1.186000000    -1.243000000
C     3.448000000     2.354000000    -3.095000000
H     3.714000000     1.878000000    -4.036000000
C     2.432000000     3.279000000    -3.122000000
C     1.570000000     3.291000000    -4.318000000
H     2.081000000     2.990000000    -5.235000000
H     1.221000000     4.288000000    -4.594000000
C     0.326000000     2.326000000    -4.142000000
C     0.376000000     1.082000000    -4.700000000
H     1.298000000     0.660000000    -5.092000000
C    -0.922000000     2.760000000    -3.730000000
C    -2.108000000     1.990000000    -3.746000000
H    -3.042000000     2.321000000    -3.301000000
C    -1.956000000     0.726000000    -4.222000000
O    -3.047000000    -0.122000000    -4.011000000
C    -2.827000000    -1.039000000    -2.916000000
C    -3.982000000    -1.044000000    -1.867000000
C    -4.043000000    -2.004000000    -0.897000000
H    -3.358000000    -2.847000000    -0.871000000
C    -5.043000000    -0.158000000    -1.951000000
H    -5.055000000     0.710000000    -2.605000000
O    -2.459000000    -2.372000000    -3.314000000
H    -1.992000000    -0.695000000    -2.287000000
C    -0.766000000     0.232000000    -4.707000000
C    -0.589000000    -1.128000000    -5.189000000
H     0.041000000    -1.182000000    -6.079000000
H    -1.543000000    -1.503000000    -5.565000000
C    -0.126000000    -2.136000000    -4.138000000
C     1.187000000    -2.581000000    -4.013000000
H     1.965000000    -2.128000000    -4.622000000
C    -1.120000000    -2.814000000    -3.356000000
C    -0.710000000    -3.746000000    -2.403000000
H    -1.390000000    -4.178000000    -1.673000000
C     0.636000000    -4.085000000    -2.240000000
O     0.996000000    -4.776000000    -1.082000000
C     1.501000000    -4.050000000     0.093000000
C     0.971000000    -4.684000000     1.384000000
C    -0.271000000    -5.271000000     1.456000000
H    -0.839000000    -5.450000000     0.546000000
C     1.731000000    -4.723000000     2.569000000
H     2.677000000    -4.191000000     2.628000000
O     2.905000000    -4.107000000     0.030000000
H     1.134000000    -3.013000000     0.123000000
C     1.576000000    -3.471000000    -3.016000000
C     3.039000000    -3.758000000    -2.897000000
H     3.572000000    -3.677000000    -3.847000000
H     3.292000000    -4.719000000    -2.445000000
C     3.623000000    -2.723000000    -1.942000000
C     3.584000000    -3.057000000    -0.551000000
C     4.115000000    -2.133000000     0.310000000
H     4.118000000    -2.359000000     1.374000000
C     4.614000000    -0.916000000    -0.093000000
O     4.787000000    -0.060000000     0.992000000
C     3.932000000     1.106000000     1.268000000
H     2.917000000     0.887000000     0.904000000
C     3.712000000     1.275000000     2.768000000
C     3.093000000     2.385000000     3.245000000
H     2.805000000     3.212000000     2.601000000
C     4.021000000     0.240000000     3.666000000
H     4.287000000    -0.752000000     3.309000000
C     3.779000000     0.424000000     5.006000000
O     3.860000000    -0.635000000     5.916000000
C     3.280000000     1.631000000     5.492000000
H     3.199000000     1.722000000     6.572000000
C     2.874000000     2.583000000     4.586000000
O     2.277000000     3.678000000     5.141000000
C     1.751000000     4.695000000     4.301000000
C     0.363000000     4.703000000     4.008000000
H    -0.220000000     3.861000000     4.372000000
C     2.595000000     5.683000000     3.768000000
H     3.665000000     5.660000000     3.961000000
C     2.104000000     6.646000000     2.968000000
H     2.815000000     7.291000000     2.458000000
C     0.753000000     6.739000000     2.716000000
H     0.395000000     7.492000000     2.019000000
C    -0.129000000     5.734000000     3.224000000
O    -1.404000000     5.741000000     2.812000000
C    -1.789000000     5.432000000     1.509000000
C    -3.095000000     5.538000000     1.117000000
H    -3.737000000     6.064000000     1.819000000
C    -3.555000000     4.975000000    -0.084000000
O    -4.900000000     5.173000000    -0.364000000
C    -5.644000000     4.311000000    -1.186000000
C    -5.797000000     2.987000000    -0.768000000
H    -5.240000000     2.602000000     0.083000000
C    -6.415000000     4.835000000    -2.141000000
H    -6.407000000     5.919000000    -2.230000000
C    -7.382000000     4.064000000    -2.781000000
H    -8.090000000     4.516000000    -3.471000000
C    -7.507000000     2.725000000    -2.360000000
H    -8.189000000     2.041000000    -2.857000000
C    -6.745000000     2.180000000    -1.354000000
O    -6.975000000     0.877000000    -0.907000000
C    -6.048000000    -0.132000000    -0.958000000
C    -6.079000000    -1.056000000     0.031000000
H    -6.810000000    -1.069000000     0.835000000
C    -5.101000000    -2.062000000     0.078000000
O    -5.199000000    -2.987000000     1.130000000
C    -4.654000000    -4.248000000     0.978000000
C    -3.682000000    -4.691000000     1.899000000
H    -3.320000000    -3.961000000     2.619000000
C    -5.097000000    -5.127000000    -0.049000000
H    -5.844000000    -4.846000000    -0.787000000
C    -4.568000000    -6.413000000    -0.129000000
H    -4.913000000    -7.078000000    -0.916000000
C    -3.502000000    -6.813000000     0.789000000
H    -3.119000000    -7.820000000     0.648000000
C    -3.085000000    -5.905000000     1.783000000
O    -2.130000000    -6.321000000     2.661000000
C    -0.820000000    -5.767000000     2.606000000
C    -0.076000000    -5.684000000     3.812000000
H    -0.399000000    -6.075000000     4.774000000
C     1.200000000    -5.190000000     3.783000000
O     1.963000000    -4.970000000     4.937000000
C     3.023000000    -4.077000000     4.996000000
C     4.282000000    -4.494000000     4.497000000
H     4.436000000    -5.451000000     4.003000000
C     5.391000000    -3.658000000     4.475000000
H     6.344000000    -3.997000000     4.075000000
C     5.238000000    -2.363000000     5.068000000
H     6.105000000    -1.729000000     5.233000000
C     3.960000000    -1.969000000     5.488000000
C     2.806000000    -2.812000000     5.394000000
H     1.828000000    -2.483000000     5.734000000
C    -1.813000000    -1.266000000     2.359000000
H    -1.796000000    -2.060000000     3.100000000
C    -0.940000000    -1.318000000     1.262000000
H    -0.266000000    -2.155000000     1.096000000
C    -1.025000000    -0.314000000     0.232000000
H    -0.299000000    -0.239000000    -0.612000000
C    -1.929000000     0.719000000     0.380000000
H    -1.942000000     1.591000000    -0.267000000
C    -2.862000000     0.761000000     1.455000000
H    -3.479000000     1.651000000     1.537000000
C    -2.746000000    -0.206000000     2.429000000
C    -3.675000000    -0.067000000     3.563000000
O    -4.611000000     0.696000000     3.541000000
O    -3.377000000    -0.690000000     4.569000000
O    -5.041000000     3.250000000     4.236000000
H    -5.254000000     3.238000000     5.169000000
H    -4.866000000     2.334000000     4.019000000
O    -6.354000000     5.833000000     3.496000000
H    -6.474000000     6.207000000     4.369000000
H    -5.944000000     4.983000000     3.654000000
O    -3.820000000     1.139000000     6.727000000
H    -3.661000000     0.588000000     5.960000000
H    -3.053000000     1.710000000     6.774000000
O    -5.976000000     2.727000000     6.906000000
H    -6.135000000     3.033000000     7.799000000
H    -5.095000000     2.353000000     6.934000000
O    -3.159000000    -3.387000000     5.828000000
H    -3.256000000    -2.557000000     5.361000000
H    -3.999000000    -3.513000000     6.270000000
O    -0.640000000    -2.160000000     7.991000000
H    -0.585000000    -1.505000000     7.295000000
H    -1.020000000    -2.929000000     7.567000000
O    -8.430000000    -1.609000000     5.066000000
H    -7.570000000    -1.423000000     5.444000000
H    -9.040000000    -1.092000000     5.593000000
O    -5.630000000    -3.485000000     7.244000000
H    -5.600000000    -3.515000000     8.200000000
H    -5.948000000    -2.604000000     7.042000000
O    -8.845000000     2.788000000     1.846000000
H    -8.149000000     2.254000000     2.230000000
H    -8.385000000     3.417000000     1.290000000
O     0.001000000     1.499000000     3.295000000
H     0.941000000     1.590000000     3.453000000
H    -0.059000000     0.949000000     2.514000000
O    -2.451000000    -5.971000000     6.109000000
H    -3.008000000    -5.953000000     6.887000000
H    -2.443000000    -5.065000000     5.799000000
O    -0.623000000    -0.763000000     5.202000000
H    -1.579000000    -0.800000000     5.210000000
H    -0.419000000     0.042000000     4.725000000
O    -2.391000000    -0.466000000     9.416000000
H    -1.649000000    -0.868000000     9.868000000
H    -2.158000000    -0.508000000     8.489000000
O    -6.946000000     1.125000000     2.693000000
H    -7.099000000     0.190000000     2.828000000
H    -5.997000000     1.225000000     2.769000000
O    -3.278000000     4.209000000     6.195000000
H    -3.549000000     4.750000000     6.937000000
H    -3.971000000     4.328000000     5.545000000
O    -6.073000000    -0.323000000     5.827000000
H    -5.679000000     0.301000000     6.436000000
H    -5.404000000    -0.456000000     5.155000000
O    -1.419000000     2.731000000     7.512000000
H    -1.933000000     3.278000000     6.919000000
H    -1.387000000     3.228000000     8.329000000
O    -8.203000000     1.627000000     5.193000000
H    -7.479000000     1.944000000     5.733000000
H    -7.794000000     1.381000000     4.364000000
O     0.681000000     0.513000000     7.450000000
H    -0.112000000     1.049000000     7.420000000
H     1.011000000     0.522000000     6.551000000
