215
-1435.59495
C    -2.221000000     4.270000000    -0.914000000
H    -2.701000000     3.828000000    -1.784000000
C    -0.854000000     4.295000000    -0.833000000
C    -0.243000000     4.648000000     0.387000000
H     0.839000000     4.619000000     0.477000000
C    -0.003000000     3.550000000    -1.939000000
O    -0.722000000     3.693000000    -3.160000000
H    -0.028000000     2.460000000    -1.789000000
O     1.364000000     4.144000000    -2.053000000
C     2.430000000     3.270000000    -2.281000000
C     3.212000000     3.051000000    -1.161000000
H     3.047000000     3.746000000    -0.342000000
C     4.119000000     2.008000000    -1.115000000
O     4.750000000     1.862000000     0.156000000
C     4.273000000     1.154000000    -2.202000000
C     5.184000000    -0.037000000    -2.138000000
H     5.566000000    -0.269000000    -3.135000000
C     4.551000000    -1.233000000    -1.442000000
C     3.821000000    -2.106000000    -2.234000000
H     3.674000000    -1.958000000    -3.301000000
H     6.070000000     0.379000000    -1.653000000
C     3.447000000     1.371000000    -3.351000000
H     3.595000000     0.748000000    -4.230000000
C     2.509000000     2.393000000    -3.364000000
C     1.681000000     2.712000000    -4.547000000
H     2.210000000     2.470000000    -5.471000000
H     1.674000000     3.798000000    -4.660000000
C     0.317000000     2.006000000    -4.525000000
C     0.259000000     0.706000000    -4.991000000
H     1.189000000     0.266000000    -5.340000000
C    -0.819000000     2.567000000    -3.955000000
C    -1.982000000     1.828000000    -3.787000000
H    -2.809000000     2.201000000    -3.188000000
C    -1.993000000     0.511000000    -4.242000000
O    -3.107000000    -0.258000000    -3.986000000
C    -3.006000000    -1.216000000    -2.781000000
C    -4.309000000    -1.011000000    -1.968000000
C    -4.599000000    -1.954000000    -0.941000000
H    -3.948000000    -2.812000000    -0.795000000
C    -5.125000000     0.073000000    -2.143000000
H    -5.045000000     0.819000000    -2.929000000
O    -2.860000000    -2.528000000    -3.273000000
H    -2.125000000    -0.900000000    -2.203000000
C    -0.877000000    -0.086000000    -4.869000000
C    -0.776000000    -1.593000000    -5.278000000
H     0.036000000    -1.752000000    -5.991000000
H    -1.757000000    -1.812000000    -5.704000000
C    -0.574000000    -2.586000000    -4.088000000
C     0.708000000    -3.072000000    -3.919000000
H     1.479000000    -2.874000000    -4.659000000
C    -1.557000000    -2.999000000    -3.208000000
C    -1.282000000    -4.010000000    -2.280000000
H    -2.035000000    -4.404000000    -1.602000000
C     0.069000000    -4.309000000    -1.997000000
O     0.330000000    -4.819000000    -0.738000000
C     0.901000000    -3.972000000     0.287000000
C     0.330000000    -4.089000000     1.672000000
C    -0.908000000    -4.687000000     1.848000000
H    -1.459000000    -5.117000000     1.016000000
C     0.950000000    -3.581000000     2.801000000
H     1.858000000    -3.001000000     2.659000000
O     2.363000000    -4.244000000     0.383000000
H     0.749000000    -2.926000000    -0.017000000
C     1.053000000    -3.812000000    -2.832000000
C     2.526000000    -4.171000000    -2.516000000
H     3.069000000    -4.246000000    -3.460000000
H     2.598000000    -5.194000000    -2.142000000
C     3.233000000    -3.172000000    -1.661000000
C     3.253000000    -3.387000000    -0.314000000
C     3.829000000    -2.416000000     0.487000000
H     3.878000000    -2.483000000     1.571000000
C     4.612000000    -1.409000000    -0.054000000
O     5.095000000    -0.385000000     0.739000000
C     4.272000000     0.789000000     1.018000000
H     3.213000000     0.559000000     0.831000000
C     4.408000000     1.211000000     2.517000000
C     4.116000000     2.467000000     2.936000000
H     3.977000000     3.243000000     2.188000000
C     4.547000000     0.193000000     3.511000000
H     4.754000000    -0.788000000     3.091000000
C     4.428000000     0.482000000     4.878000000
O     4.715000000    -0.487000000     5.840000000
C     4.163000000     1.805000000     5.276000000
H     4.041000000     2.018000000     6.334000000
C     4.021000000     2.810000000     4.286000000
O     3.563000000     4.052000000     4.743000000
C     2.996000000     4.941000000     3.869000000
C     1.680000000     4.826000000     3.627000000
H     1.106000000     4.215000000     4.319000000
C     3.769000000     5.793000000     3.103000000
H     4.852000000     5.845000000     3.172000000
C     3.110000000     6.648000000     2.186000000
H     3.709000000     7.255000000     1.512000000
C     1.723000000     6.631000000     2.006000000
H     1.166000000     7.291000000     1.345000000
C     0.977000000     5.683000000     2.740000000
O    -0.382000000     5.562000000     2.560000000
C    -1.053000000     5.146000000     1.422000000
C    -2.423000000     5.368000000     1.267000000
H    -2.989000000     5.974000000     1.971000000
C    -3.044000000     4.833000000     0.142000000
O    -4.429000000     5.059000000     0.075000000
C    -5.217000000     4.462000000    -0.896000000
C    -5.602000000     3.183000000    -0.779000000
H    -5.348000000     2.514000000     0.039000000
C    -5.658000000     5.245000000    -1.939000000
H    -5.193000000     6.205000000    -2.149000000
C    -6.526000000     4.736000000    -2.967000000
H    -6.799000000     5.310000000    -3.848000000
C    -6.962000000     3.382000000    -2.812000000
H    -7.790000000     3.019000000    -3.415000000
C    -6.527000000     2.655000000    -1.683000000
O    -7.013000000     1.407000000    -1.444000000
C    -6.169000000     0.314000000    -1.222000000
C    -6.420000000    -0.564000000    -0.249000000
H    -7.256000000    -0.388000000     0.424000000
C    -5.718000000    -1.719000000    -0.145000000
O    -6.016000000    -2.486000000     0.976000000
C    -5.454000000    -3.748000000     1.196000000
C    -4.447000000    -3.935000000     2.081000000
H    -3.997000000    -3.077000000     2.574000000
C    -6.097000000    -4.848000000     0.657000000
H    -6.979000000    -4.727000000     0.032000000
C    -5.611000000    -6.113000000     0.963000000
H    -6.159000000    -6.892000000     0.439000000
C    -4.481000000    -6.277000000     1.765000000
H    -4.111000000    -7.292000000     1.889000000
C    -3.926000000    -5.168000000     2.358000000
O    -2.781000000    -5.423000000     3.177000000
C    -1.523000000    -4.817000000     3.087000000
C    -0.914000000    -4.159000000     4.205000000
H    -1.403000000    -4.138000000     5.176000000
C     0.361000000    -3.644000000     4.014000000
O     1.018000000    -3.242000000     5.179000000
C     2.349000000    -3.102000000     5.189000000
C     3.158000000    -4.233000000     5.121000000
H     2.630000000    -5.183000000     5.154000000
C     4.556000000    -4.118000000     5.344000000
H     5.190000000    -4.996000000     5.439000000
C     5.158000000    -2.835000000     5.382000000
H     6.231000000    -2.668000000     5.325000000
C     4.315000000    -1.707000000     5.530000000
C     2.897000000    -1.910000000     5.512000000
H     2.286000000    -1.014000000     5.591000000
C    -1.667000000    -0.860000000     2.757000000
H    -1.494000000    -1.539000000     3.588000000
C    -0.732000000    -0.628000000     1.697000000
H     0.227000000    -1.141000000     1.719000000
C    -1.018000000     0.240000000     0.638000000
H    -0.347000000     0.340000000    -0.213000000
C    -2.170000000     0.950000000     0.607000000
H    -2.464000000     1.653000000    -0.168000000
C    -3.124000000     0.711000000     1.603000000
H    -4.084000000     1.218000000     1.549000000
C    -2.937000000    -0.234000000     2.644000000
C    -3.973000000    -0.338000000     3.757000000
O    -4.931000000     0.345000000     3.719000000
O    -3.924000000    -1.205000000     4.606000000
O    -5.312000000     2.386000000     5.239000000
H    -5.717000000     2.074000000     6.048000000
H    -5.178000000     1.595000000     4.717000000
O    -5.423000000     4.471000000     3.480000000
H    -5.951000000     5.058000000     4.021000000
H    -5.087000000     3.817000000     4.093000000
O    -3.764000000     0.127000000     7.040000000
H    -3.834000000    -0.101000000     6.113000000
H    -2.822000000     0.178000000     7.203000000
O    -4.710000000     4.541000000     6.634000000
H    -3.833000000     4.204000000     6.817000000
H    -5.178000000     3.796000000     6.257000000
O    -6.028000000     1.667000000     7.885000000
H    -5.133000000     1.515000000     7.583000000
H    -5.961000000     1.674000000     8.840000000
O    -3.648000000    -2.877000000     6.702000000
H    -3.792000000    -2.154000000     6.092000000
H    -2.705000000    -2.868000000     6.866000000
O    -0.744000000    -0.372000000     6.831000000
H     0.016000000     0.043000000     7.240000000
H    -0.614000000    -0.237000000     5.892000000
O    -8.211000000    -3.286000000     2.596000000
H    -7.498000000    -2.854000000     2.126000000
H    -7.780000000    -3.967000000     3.112000000
O    -4.955000000    -1.070000000     9.339000000
H    -4.464000000    -0.652000000     8.632000000
H    -4.320000000    -1.646000000     9.764000000
O    -9.382000000     1.053000000     1.130000000
H    -8.768000000     1.472000000     1.733000000
H    -9.306000000     1.560000000     0.321000000
O    -1.376000000     2.849000000     4.379000000
H    -2.094000000     2.958000000     5.002000000
H    -1.745000000     3.120000000     3.538000000
O    -8.716000000     1.865000000     6.638000000
H    -8.765000000     1.297000000     5.869000000
H    -7.785000000     1.890000000     6.858000000
O    -5.275000000    -5.269000000     6.081000000
H    -5.082000000    -4.351000000     6.270000000
H    -5.741000000    -5.249000000     5.246000000
O     0.641000000     1.000000000     4.420000000
H     0.203000000     1.025000000     3.569000000
H     0.453000000     1.853000000     4.811000000
O    -6.797000000     1.868000000     2.495000000
H    -6.251000000     2.651000000     2.566000000
H    -6.287000000     1.180000000     2.922000000
O    -6.356000000    -2.096000000     5.125000000
H    -6.344000000    -2.766000000     4.441000000
H    -5.558000000    -1.588000000     4.975000000
O    -8.847000000    -0.226000000     4.446000000
H    -9.361000000    -0.995000000     4.201000000
H    -7.937000000    -0.517000000     4.390000000
O    -6.929000000    -1.963000000     7.908000000
H    -6.160000000    -1.681000000     8.403000000
H    -6.608000000    -2.077000000     7.013000000
O    -1.007000000    -3.046000000     7.763000000
H    -0.782000000    -2.187000000     7.404000000
H    -0.932000000    -2.937000000     8.711000000
