215
-1440.70622
C    -2.062000000     5.046000000    -0.856000000
H    -2.517000000     4.917000000    -1.835000000
C    -0.699000000     4.714000000    -0.658000000
C    -0.144000000     4.923000000     0.589000000
H     0.842000000     4.506000000     0.780000000
C    -0.066000000     3.896000000    -1.685000000
O    -0.631000000     4.064000000    -3.002000000
H    -0.110000000     2.858000000    -1.324000000
O     1.285000000     4.308000000    -1.861000000
C     2.210000000     3.370000000    -1.882000000
C     2.941000000     3.090000000    -0.755000000
H     2.735000000     3.675000000     0.138000000
C     3.912000000     2.126000000    -0.784000000
O     4.425000000     1.748000000     0.448000000
C     4.146000000     1.332000000    -1.946000000
C     5.037000000     0.163000000    -1.960000000
H     5.372000000    -0.152000000    -2.950000000
C     4.307000000    -1.073000000    -1.541000000
C     3.822000000    -1.976000000    -2.501000000
H     3.833000000    -1.713000000    -3.556000000
H     5.884000000     0.326000000    -1.290000000
C     3.482000000     1.675000000    -3.110000000
H     3.818000000     1.235000000    -4.046000000
C     2.463000000     2.647000000    -3.076000000
C     1.721000000     2.976000000    -4.347000000
H     2.223000000     2.706000000    -5.278000000
H     1.717000000     4.066000000    -4.280000000
C     0.403000000     2.339000000    -4.384000000
C     0.253000000     1.068000000    -4.896000000
H     1.047000000     0.568000000    -5.444000000
C    -0.700000000     2.871000000    -3.718000000
C    -1.898000000     2.106000000    -3.554000000
H    -2.741000000     2.567000000    -3.045000000
C    -1.962000000     0.844000000    -4.032000000
O    -3.113000000     0.071000000    -3.855000000
C    -3.001000000    -0.894000000    -2.791000000
C    -4.135000000    -0.835000000    -1.716000000
C    -4.384000000    -1.976000000    -0.959000000
H    -3.924000000    -2.943000000    -1.145000000
C    -4.775000000     0.366000000    -1.460000000
H    -4.532000000     1.293000000    -1.973000000
O    -2.894000000    -2.221000000    -3.390000000
H    -2.036000000    -0.818000000    -2.268000000
C    -0.876000000     0.282000000    -4.720000000
C    -0.915000000    -1.075000000    -5.319000000
H    -0.202000000    -1.093000000    -6.146000000
H    -1.913000000    -1.291000000    -5.706000000
C    -0.578000000    -2.206000000    -4.333000000
C     0.710000000    -2.656000000    -4.179000000
H     1.460000000    -2.208000000    -4.826000000
C    -1.610000000    -2.712000000    -3.442000000
C    -1.249000000    -3.760000000    -2.572000000
H    -1.955000000    -4.139000000    -1.837000000
C     0.006000000    -4.314000000    -2.557000000
O     0.351000000    -5.215000000    -1.508000000
C     0.949000000    -4.507000000    -0.373000000
C     0.415000000    -4.949000000     0.986000000
C    -0.812000000    -5.515000000     1.057000000
H    -1.463000000    -5.704000000     0.208000000
C     1.051000000    -4.438000000     2.135000000
H     1.936000000    -3.809000000     2.089000000
O     2.393000000    -4.608000000    -0.390000000
H     0.623000000    -3.457000000    -0.339000000
C     1.031000000    -3.627000000    -3.190000000
C     2.521000000    -4.127000000    -3.065000000
H     2.990000000    -4.032000000    -4.047000000
H     2.431000000    -5.168000000    -2.746000000
C     3.142000000    -3.154000000    -2.052000000
C     3.134000000    -3.483000000    -0.719000000
C     3.685000000    -2.612000000     0.247000000
H     3.800000000    -2.935000000     1.279000000
C     4.165000000    -1.405000000    -0.175000000
O     4.645000000    -0.617000000     0.844000000
C     3.910000000     0.620000000     1.084000000
H     2.867000000     0.466000000     0.768000000
C     3.907000000     1.007000000     2.580000000
C     3.894000000     2.377000000     2.994000000
H     3.904000000     3.158000000     2.238000000
C     3.889000000    -0.014000000     3.529000000
H     3.850000000    -1.058000000     3.231000000
C     3.884000000     0.343000000     4.892000000
O     4.117000000    -0.693000000     5.812000000
C     3.862000000     1.668000000     5.264000000
H     3.721000000     1.850000000     6.326000000
C     3.916000000     2.729000000     4.340000000
O     3.779000000     4.064000000     4.813000000
C     3.054000000     4.971000000     4.092000000
C     1.745000000     4.891000000     3.897000000
H     1.296000000     4.027000000     4.380000000
C     3.737000000     6.003000000     3.448000000
H     4.794000000     6.071000000     3.693000000
C     3.075000000     6.942000000     2.618000000
H     3.664000000     7.782000000     2.259000000
C     1.723000000     6.885000000     2.458000000
H     1.222000000     7.574000000     1.782000000
C     1.033000000     5.887000000     3.140000000
O    -0.301000000     5.703000000     2.886000000
C    -0.859000000     5.537000000     1.617000000
C    -2.227000000     5.916000000     1.381000000
H    -2.818000000     6.341000000     2.188000000
C    -2.844000000     5.565000000     0.182000000
O    -4.175000000     5.800000000    -0.026000000
C    -5.044000000     4.926000000    -0.544000000
C    -5.156000000     3.562000000    -0.229000000
H    -4.427000000     3.106000000     0.436000000
C    -5.997000000     5.504000000    -1.448000000
H    -6.052000000     6.588000000    -1.495000000
C    -6.929000000     4.764000000    -2.213000000
H    -7.675000000     5.263000000    -2.827000000
C    -7.174000000     3.434000000    -1.680000000
H    -8.067000000     2.897000000    -1.989000000
C    -6.235000000     2.886000000    -0.836000000
O    -6.499000000     1.630000000    -0.335000000
C    -5.724000000     0.474000000    -0.523000000
C    -5.937000000    -0.540000000     0.345000000
H    -6.688000000    -0.508000000     1.130000000
C    -5.336000000    -1.808000000     0.103000000
O    -5.515000000    -2.868000000     1.028000000
C    -5.132000000    -4.187000000     0.932000000
C    -4.319000000    -4.651000000     1.949000000
H    -3.971000000    -3.968000000     2.720000000
C    -5.493000000    -4.973000000    -0.149000000
H    -6.290000000    -4.648000000    -0.813000000
C    -4.963000000    -6.238000000    -0.297000000
H    -5.088000000    -6.820000000    -1.207000000
C    -4.088000000    -6.766000000     0.674000000
H    -3.612000000    -7.737000000     0.565000000
C    -3.762000000    -5.933000000     1.746000000
O    -2.708000000    -6.307000000     2.399000000
C    -1.431000000    -5.690000000     2.286000000
C    -0.733000000    -5.295000000     3.449000000
H    -1.182000000    -5.334000000     4.438000000
C     0.454000000    -4.648000000     3.351000000
O     1.003000000    -4.180000000     4.541000000
C     2.243000000    -3.764000000     4.836000000
C     3.217000000    -4.746000000     5.051000000
H     3.022000000    -5.806000000     4.907000000
C     4.494000000    -4.341000000     5.372000000
H     5.279000000    -5.066000000     5.573000000
C     4.781000000    -3.013000000     5.717000000
H     5.770000000    -2.782000000     6.103000000
C     3.759000000    -2.048000000     5.563000000
C     2.494000000    -2.425000000     5.137000000
H     1.695000000    -1.695000000     5.033000000
C    -1.934000000    -0.965000000     2.175000000
H    -1.994000000    -1.890000000     2.741000000
C    -1.166000000    -0.921000000     1.011000000
H    -0.497000000    -1.744000000     0.772000000
C    -1.270000000     0.239000000     0.222000000
H    -0.771000000     0.214000000    -0.721000000
C    -2.115000000     1.238000000     0.546000000
H    -2.266000000     1.998000000    -0.216000000
C    -2.856000000     1.212000000     1.744000000
H    -3.359000000     2.120000000     2.067000000
C    -2.789000000     0.133000000     2.576000000
C    -3.663000000     0.083000000     3.832000000
O    -4.179000000     1.090000000     4.312000000
O    -3.758000000    -0.992000000     4.440000000
O    -4.306000000     3.607000000     4.990000000
H    -4.889000000     3.572000000     5.748000000
H    -4.071000000     2.693000000     4.825000000
O    -6.479000000     4.923000000     3.587000000
H    -6.786000000     5.236000000     4.438000000
H    -5.551000000     4.733000000     3.723000000
O    -3.241000000     1.417000000     7.146000000
H    -3.561000000     0.945000000     6.377000000
H    -2.389000000     1.022000000     7.332000000
O    -3.291000000     5.712000000     6.576000000
H    -2.674000000     5.476000000     7.269000000
H    -3.355000000     4.926000000     6.034000000
O    -5.383000000     3.058000000     7.541000000
H    -4.593000000     2.523000000     7.471000000
H    -5.845000000     2.706000000     8.302000000
O    -2.280000000    -3.185000000     5.991000000
H    -2.863000000    -2.557000000     5.565000000
H    -1.503000000    -3.207000000     5.433000000
O    -0.195000000    -1.849000000     8.373000000
H     0.328000000    -1.054000000     8.266000000
H    -0.877000000    -1.779000000     7.705000000
O    -5.521000000    -0.480000000     8.711000000
H    -5.687000000    -0.917000000     7.875000000
H    -4.898000000    -1.052000000     9.160000000
O    -9.009000000     0.793000000     3.121000000
H    -8.054000000     0.814000000     3.172000000
H    -9.285000000     1.654000000     3.436000000
O    -0.810000000     2.044000000     4.610000000
H    -0.780000000     2.907000000     5.023000000
H    -1.370000000     2.164000000     3.843000000
O    -6.238000000    -3.970000000     5.015000000
H    -6.714000000    -4.053000000     4.189000000
H    -5.685000000    -4.750000000     5.052000000
O    -7.958000000     3.487000000     6.425000000
H    -8.055000000     2.583000000     6.127000000
H    -7.134000000     3.493000000     6.911000000
O    -3.577000000    -4.779000000     7.943000000
H    -4.499000000    -4.535000000     8.020000000
H    -3.192000000    -4.091000000     7.399000000
O    -1.326000000    -0.469000000     5.698000000
H    -2.073000000    -0.700000000     5.146000000
H    -1.006000000     0.357000000     5.334000000
O    -6.586000000     1.890000000     3.359000000
H    -6.427000000     2.772000000     3.023000000
H    -5.807000000     1.686000000     3.876000000
O    -0.843000000     4.432000000     5.858000000
H    -0.209000000     5.124000000     5.669000000
H    -1.047000000     4.540000000     6.787000000
O    -5.468000000    -1.784000000     6.333000000
H    -5.831000000    -2.507000000     5.821000000
H    -4.875000000    -1.338000000     5.728000000
O    -7.119000000     0.761000000     6.104000000
H    -6.859000000     0.845000000     5.187000000
H    -6.310000000     0.531000000     6.562000000
O     1.128000000     0.401000000     7.462000000
H     1.489000000     1.288000000     7.450000000
H     0.597000000     0.348000000     6.668000000
