215
-1448.76987
C     0.748000000     3.125000000    -4.528000000
H     0.727000000     2.261000000    -5.187000000
C     1.629000000     3.137000000    -3.453000000
C     1.798000000     4.326000000    -2.730000000
H     2.523000000     4.411000000    -1.924000000
C     2.357000000     1.899000000    -2.996000000
O     2.563000000     0.897000000    -4.059000000
H     1.715000000     1.355000000    -2.288000000
O     3.707000000     2.274000000    -2.551000000
C     4.296000000     1.690000000    -1.472000000
C     4.091000000     2.255000000    -0.209000000
H     3.698000000     3.269000000    -0.189000000
C     4.350000000     1.518000000     0.931000000
O     3.966000000     2.072000000     2.102000000
C     4.791000000     0.185000000     0.911000000
C     4.995000000    -0.721000000     2.113000000
H     5.764000000    -1.435000000     1.808000000
C     3.732000000    -1.430000000     2.659000000
C     3.570000000    -2.762000000     2.359000000
H     4.359000000    -3.252000000     1.795000000
H     5.420000000    -0.093000000     2.898000000
C     5.071000000    -0.405000000    -0.379000000
H     5.334000000    -1.449000000    -0.527000000
C     4.785000000     0.333000000    -1.569000000
C     4.817000000    -0.453000000    -2.862000000
H     5.533000000    -1.277000000    -2.840000000
H     5.072000000     0.155000000    -3.733000000
C     3.468000000    -1.128000000    -3.112000000
C     3.247000000    -2.441000000    -2.843000000
H     3.946000000    -3.115000000    -2.354000000
C     2.459000000    -0.408000000    -3.693000000
C     1.197000000    -0.934000000    -4.025000000
H     0.408000000    -0.414000000    -4.562000000
C     1.024000000    -2.283000000    -3.770000000
O    -0.268000000    -2.735000000    -4.089000000
C    -1.165000000    -2.831000000    -2.925000000
C    -2.600000000    -2.386000000    -3.380000000
C    -3.712000000    -2.997000000    -2.854000000
H    -3.552000000    -3.941000000    -2.339000000
C    -2.738000000    -1.109000000    -3.959000000
H    -1.897000000    -0.598000000    -4.422000000
O    -1.153000000    -4.189000000    -2.374000000
H    -0.871000000    -2.116000000    -2.143000000
C     1.999000000    -3.028000000    -3.115000000
C     1.851000000    -4.481000000    -2.723000000
H     2.839000000    -4.944000000    -2.779000000
H     1.305000000    -5.058000000    -3.472000000
C     1.124000000    -4.592000000    -1.441000000
C     1.887000000    -4.783000000    -0.311000000
H     2.957000000    -4.970000000    -0.333000000
C    -0.255000000    -4.448000000    -1.322000000
C    -0.845000000    -4.420000000    -0.087000000
H    -1.911000000    -4.245000000     0.036000000
C    -0.083000000    -4.657000000     1.055000000
O    -0.784000000    -4.606000000     2.260000000
C    -0.717000000    -3.359000000     2.961000000
C    -2.048000000    -2.760000000     3.403000000
C    -3.175000000    -2.805000000     2.576000000
H    -3.133000000    -3.249000000     1.585000000
C    -2.206000000    -2.155000000     4.710000000
H    -1.408000000    -2.186000000     5.448000000
O     0.272000000    -3.381000000     3.990000000
H    -0.386000000    -2.599000000     2.238000000
C     1.298000000    -4.697000000     0.956000000
C     2.233000000    -4.802000000     2.152000000
H     3.183000000    -5.292000000     1.932000000
H     1.758000000    -5.482000000     2.863000000
C     2.440000000    -3.457000000     2.770000000
C     1.476000000    -2.782000000     3.590000000
C     1.533000000    -1.418000000     3.738000000
H     0.759000000    -0.932000000     4.326000000
C     2.695000000    -0.762000000     3.321000000
O     2.955000000     0.577000000     3.676000000
C     2.708000000     1.643000000     2.731000000
H     2.159000000     1.258000000     1.859000000
C     1.908000000     2.775000000     3.347000000
C     1.921000000     4.013000000     2.781000000
H     2.627000000     4.200000000     1.975000000
C     0.990000000     2.469000000     4.364000000
H     0.933000000     1.441000000     4.714000000
C     0.145000000     3.476000000     4.886000000
O    -0.854000000     3.250000000     5.880000000
C     0.150000000     4.759000000     4.305000000
H    -0.577000000     5.519000000     4.578000000
C     1.086000000     5.001000000     3.276000000
O     1.091000000     6.250000000     2.651000000
C     1.650000000     6.545000000     1.410000000
C     1.017000000     6.324000000     0.240000000
H     0.176000000     5.637000000     0.203000000
C     2.790000000     7.283000000     1.458000000
H     3.181000000     7.470000000     2.455000000
C     3.320000000     7.906000000     0.249000000
H     4.221000000     8.510000000     0.326000000
C     2.722000000     7.597000000    -0.933000000
H     3.036000000     8.128000000    -1.827000000
C     1.577000000     6.723000000    -0.978000000
O     0.934000000     6.548000000    -2.228000000
C     0.947000000     5.416000000    -3.008000000
C     0.095000000     5.400000000    -4.045000000
H    -0.426000000     6.308000000    -4.337000000
C    -0.048000000     4.256000000    -4.815000000
O    -0.963000000     4.232000000    -5.899000000
C    -1.681000000     3.050000000    -6.279000000
C    -2.474000000     2.394000000    -5.333000000
H    -2.610000000     2.701000000    -4.299000000
C    -1.673000000     2.599000000    -7.599000000
H    -1.165000000     3.188000000    -8.358000000
C    -2.459000000     1.529000000    -7.985000000
H    -2.480000000     1.299000000    -9.047000000
C    -3.217000000     0.869000000    -7.020000000
H    -3.942000000     0.120000000    -7.330000000
C    -3.225000000     1.288000000    -5.695000000
O    -4.161000000     0.722000000    -4.809000000
C    -4.039000000    -0.521000000    -4.205000000
C    -5.147000000    -1.149000000    -3.596000000
H    -6.155000000    -0.760000000    -3.713000000
C    -5.004000000    -2.376000000    -3.019000000
O    -6.163000000    -2.921000000    -2.440000000
C    -6.061000000    -3.485000000    -1.182000000
C    -5.867000000    -2.689000000    -0.107000000
H    -5.841000000    -1.620000000    -0.303000000
C    -6.217000000    -4.830000000    -1.009000000
H    -6.483000000    -5.441000000    -1.869000000
C    -6.215000000    -5.436000000     0.246000000
H    -6.527000000    -6.476000000     0.295000000
C    -5.998000000    -4.647000000     1.388000000
H    -6.134000000    -5.041000000     2.392000000
C    -5.761000000    -3.241000000     1.186000000
O    -5.562000000    -2.455000000     2.263000000
C    -4.377000000    -2.272000000     2.997000000
C    -4.475000000    -1.594000000     4.158000000
H    -5.434000000    -1.153000000     4.417000000
C    -3.369000000    -1.491000000     5.034000000
O    -3.402000000    -0.845000000     6.289000000
C    -2.348000000    -0.026000000     6.696000000
C    -1.680000000    -0.262000000     7.870000000
H    -1.988000000    -1.148000000     8.419000000
C    -0.561000000     0.485000000     8.296000000
H    -0.009000000     0.268000000     9.206000000
C    -0.239000000     1.636000000     7.588000000
H     0.546000000     2.283000000     7.971000000
C    -1.010000000     1.994000000     6.487000000
C    -2.034000000     1.177000000     6.005000000
H    -2.661000000     1.473000000     5.167000000
C    -2.440000000    -0.448000000    -0.097000000
H    -3.300000000    -1.110000000    -0.155000000
C    -1.172000000    -0.892000000     0.112000000
H    -1.013000000    -1.967000000     0.103000000
C    -0.116000000     0.003000000     0.309000000
H     0.881000000    -0.390000000     0.562000000
C    -0.321000000     1.390000000     0.306000000
H     0.479000000     2.102000000     0.494000000
C    -1.618000000     1.834000000     0.035000000
H    -1.794000000     2.904000000    -0.044000000
C    -2.704000000     0.963000000    -0.177000000
C    -4.117000000     1.507000000    -0.555000000
O    -4.269000000     2.642000000    -0.747000000
O    -5.102000000     0.783000000    -0.572000000
O    -3.637000000     3.050000000     3.281000000
H    -3.148000000     2.230000000     3.207000000
H    -4.351000000     2.961000000     2.649000000
O    -6.374000000     2.079000000    -3.481000000
H    -5.655000000     1.551000000    -3.828000000
H    -6.642000000     1.622000000    -2.683000000
O    -2.310000000     0.774000000     2.797000000
H    -1.834000000     1.083000000     2.026000000
H    -2.504000000    -0.144000000     2.607000000
O    -8.559000000     3.481000000    -4.499000000
H    -8.731000000     2.984000000    -5.299000000
H    -7.677000000     3.216000000    -4.238000000
O    -9.039000000     4.330000000    -0.186000000
H    -8.656000000     4.980000000     0.403000000
H    -9.122000000     3.541000000     0.350000000
O    -6.794000000     0.615000000     1.726000000
H    -6.138000000     0.393000000     1.065000000
H    -7.533000000     0.038000000     1.532000000
O    -7.968000000     5.478000000     2.362000000
H    -7.457000000     4.703000000     2.131000000
H    -8.220000000     5.335000000     3.275000000
O    -3.500000000     7.693000000     2.319000000
H    -3.127000000     6.819000000     2.208000000
H    -4.184000000     7.580000000     2.978000000
O    -7.503000000     0.317000000    -1.431000000
H    -7.898000000     0.033000000    -0.606000000
H    -6.580000000     0.455000000    -1.219000000
O    -4.009000000     6.849000000    -1.570000000
H    -3.967000000     6.033000000    -2.068000000
H    -3.095000000     7.113000000    -1.467000000
O    -7.831000000     0.441000000     4.717000000
H    -7.655000000     0.628000000     3.795000000
H    -8.259000000     1.232000000     5.044000000
O    -9.107000000    -2.634000000    -1.712000000
H    -8.173000000    -2.839000000    -1.772000000
H    -9.539000000    -3.488000000    -1.703000000
O    -6.178000000     3.149000000     1.555000000
H    -5.566000000     3.122000000     0.819000000
H    -6.470000000     2.244000000     1.658000000
O    -4.644000000     4.212000000    -2.695000000
H    -4.333000000     3.850000000    -1.866000000
H    -5.422000000     3.694000000    -2.905000000
O    -2.399000000     5.127000000     1.918000000
H    -2.874000000     4.397000000     2.316000000
H    -2.824000000     5.255000000     1.070000000
O   -10.169000000    -0.120000000    -2.154000000
H    -9.283000000     0.231000000    -2.247000000
H   -10.040000000    -1.050000000    -1.969000000
O    -8.879000000    -1.269000000     1.137000000
H    -8.950000000    -2.066000000     0.611000000
H    -8.752000000    -1.584000000     2.032000000
O    -6.373000000     7.557000000    -0.875000000
H    -6.412000000     6.649000000    -0.574000000
H    -5.680000000     7.561000000    -1.535000000
O    -4.023000000     5.508000000    -5.493000000
H    -3.123000000     5.712000000    -5.747000000
H    -3.983000000     5.387000000    -4.544000000
