215
-1419.13862
C    -2.659000000     3.592000000    -0.438000000
H    -3.183000000     2.828000000    -1.006000000
C    -1.465000000     4.115000000    -0.967000000
C    -0.803000000     5.059000000    -0.188000000
H     0.207000000     5.268000000    -0.531000000
C    -0.889000000     3.423000000    -2.192000000
O    -1.847000000     3.162000000    -3.291000000
H    -0.570000000     2.442000000    -1.809000000
O     0.262000000     4.055000000    -2.775000000
C     1.425000000     3.348000000    -2.999000000
C     2.393000000     3.388000000    -2.009000000
H     2.329000000     4.117000000    -1.205000000
C     3.405000000     2.416000000    -2.000000000
O     4.229000000     2.543000000    -0.911000000
C     3.484000000     1.470000000    -3.011000000
C     4.557000000     0.489000000    -3.012000000
H     4.923000000     0.315000000    -4.025000000
C     4.278000000    -0.726000000    -2.189000000
C     3.725000000    -1.820000000    -2.897000000
H     3.573000000    -1.813000000    -3.973000000
H     5.372000000     1.021000000    -2.517000000
C     2.501000000     1.498000000    -3.992000000
H     2.550000000     0.723000000    -4.752000000
C     1.463000000     2.331000000    -3.948000000
C     0.411000000     2.262000000    -5.084000000
H     0.834000000     1.929000000    -6.035000000
H     0.024000000     3.251000000    -5.339000000
C    -0.752000000     1.368000000    -4.705000000
C    -0.802000000     0.060000000    -4.953000000
H     0.097000000    -0.283000000    -5.458000000
C    -1.826000000     1.901000000    -3.951000000
C    -2.864000000     1.066000000    -3.595000000
H    -3.717000000     1.329000000    -2.975000000
C    -2.815000000    -0.215000000    -3.810000000
O    -3.851000000    -1.015000000    -3.390000000
C    -3.527000000    -1.938000000    -2.361000000
C    -4.687000000    -2.042000000    -1.334000000
C    -4.837000000    -3.181000000    -0.536000000
H    -4.220000000    -4.071000000    -0.628000000
C    -5.564000000    -0.967000000    -1.104000000
H    -5.412000000    -0.052000000    -1.670000000
O    -3.058000000    -3.283000000    -2.855000000
H    -2.676000000    -1.513000000    -1.807000000
C    -1.769000000    -0.785000000    -4.557000000
C    -1.633000000    -2.243000000    -4.988000000
H    -0.970000000    -2.189000000    -5.854000000
H    -2.601000000    -2.664000000    -5.269000000
C    -0.923000000    -3.046000000    -3.862000000
C     0.491000000    -3.232000000    -3.801000000
H     1.071000000    -2.712000000    -4.560000000
C    -1.708000000    -3.523000000    -2.794000000
C    -1.080000000    -4.242000000    -1.733000000
H    -1.640000000    -4.675000000    -0.907000000
C     0.292000000    -4.449000000    -1.740000000
O     0.841000000    -4.817000000    -0.532000000
C     1.612000000    -3.879000000     0.218000000
C     1.155000000    -3.935000000     1.721000000
C    -0.172000000    -4.194000000     2.114000000
H    -0.936000000    -4.445000000     1.382000000
C     2.058000000    -3.485000000     2.731000000
H     3.086000000    -3.297000000     2.431000000
O     3.058000000    -4.004000000    -0.004000000
H     1.374000000    -2.882000000    -0.181000000
C     1.091000000    -3.862000000    -2.687000000
C     2.617000000    -4.129000000    -2.779000000
H     2.904000000    -4.301000000    -3.818000000
H     2.998000000    -5.056000000    -2.345000000
C     3.270000000    -2.916000000    -2.097000000
C     3.555000000    -2.934000000    -0.733000000
C     4.061000000    -1.827000000    -0.055000000
H     4.191000000    -1.826000000     1.024000000
C     4.460000000    -0.723000000    -0.782000000
O     4.939000000     0.381000000    -0.093000000
C     4.047000000     1.531000000     0.080000000
H     3.038000000     1.103000000    -0.013000000
C     4.225000000     2.040000000     1.487000000
C     3.818000000     3.318000000     1.870000000
H     3.390000000     3.953000000     1.098000000
C     4.578000000     1.192000000     2.525000000
H     4.795000000     0.142000000     2.347000000
C     4.753000000     1.658000000     3.812000000
O     5.375000000     0.910000000     4.798000000
C     4.567000000     3.008000000     4.091000000
H     4.919000000     3.514000000     4.985000000
C     3.894000000     3.778000000     3.193000000
O     3.764000000     5.159000000     3.470000000
C     3.001000000     5.977000000     2.730000000
C     1.663000000     5.628000000     2.503000000
H     1.300000000     4.664000000     2.850000000
C     3.455000000     7.241000000     2.302000000
H     4.458000000     7.578000000     2.554000000
C     2.640000000     8.065000000     1.552000000
H     3.035000000     8.997000000     1.156000000
C     1.308000000     7.765000000     1.428000000
H     0.620000000     8.550000000     1.123000000
C     0.782000000     6.583000000     1.969000000
O    -0.552000000     6.318000000     1.882000000
C    -1.279000000     5.490000000     1.049000000
C    -2.479000000     4.936000000     1.521000000
H    -2.944000000     5.227000000     2.460000000
C    -3.191000000     4.053000000     0.771000000
O    -4.330000000     3.643000000     1.267000000
C    -5.333000000     3.126000000     0.516000000
C    -5.764000000     1.821000000     0.806000000
H    -5.248000000     1.309000000     1.616000000
C    -5.979000000     3.989000000    -0.362000000
H    -5.693000000     5.031000000    -0.481000000
C    -7.108000000     3.575000000    -1.087000000
H    -7.621000000     4.213000000    -1.802000000
C    -7.460000000     2.215000000    -0.980000000
H    -8.260000000     1.753000000    -1.554000000
C    -6.842000000     1.352000000    -0.022000000
O    -7.329000000     0.053000000     0.132000000
C    -6.611000000    -1.044000000    -0.207000000
C    -6.715000000    -2.104000000     0.564000000
H    -7.513000000    -2.301000000     1.275000000
C    -5.857000000    -3.232000000     0.437000000
O    -5.985000000    -4.298000000     1.338000000
C    -4.885000000    -4.963000000     1.898000000
C    -3.962000000    -4.258000000     2.586000000
H    -4.249000000    -3.231000000     2.801000000
C    -4.697000000    -6.305000000     1.742000000
H    -5.533000000    -6.788000000     1.242000000
C    -3.642000000    -6.921000000     2.327000000
H    -3.483000000    -7.991000000     2.220000000
C    -2.682000000    -6.186000000     2.976000000
H    -1.865000000    -6.750000000     3.420000000
C    -2.810000000    -4.868000000     3.178000000
O    -1.794000000    -4.195000000     3.897000000
C    -0.500000000    -4.010000000     3.459000000
C     0.391000000    -3.620000000     4.415000000
H     0.170000000    -3.529000000     5.475000000
C     1.653000000    -3.322000000     4.033000000
O     2.496000000    -3.001000000     5.049000000
C     3.748000000    -2.405000000     4.856000000
C     4.941000000    -3.209000000     4.839000000
H     4.872000000    -4.292000000     4.896000000
C     6.163000000    -2.595000000     4.896000000
H     7.078000000    -3.168000000     5.019000000
C     6.274000000    -1.224000000     4.972000000
H     7.254000000    -0.759000000     5.039000000
C     5.108000000    -0.458000000     4.941000000
C     3.873000000    -1.027000000     4.810000000
H     2.993000000    -0.401000000     4.693000000
C    -1.597000000    -1.124000000     1.470000000
H    -2.223000000    -1.986000000     1.684000000
C    -0.829000000    -1.122000000     0.284000000
H    -0.741000000    -1.988000000    -0.367000000
C    -0.004000000    -0.073000000    -0.039000000
H     0.579000000    -0.113000000    -0.914000000
C     0.014000000     1.085000000     0.622000000
H     0.604000000     1.925000000     0.266000000
C    -0.889000000     1.151000000     1.719000000
H    -0.915000000     2.100000000     2.249000000
C    -1.729000000     0.112000000     2.156000000
C    -2.761000000     0.320000000     3.207000000
O    -2.735000000     1.334000000     3.816000000
O    -3.726000000    -0.461000000     3.258000000
O    -2.451000000     3.320000000     5.599000000
H    -3.089000000     4.005000000     5.400000000
H    -2.529000000     2.701000000     4.872000000
O    -7.712000000     0.622000000     3.499000000
H    -7.940000000     1.551000000     3.466000000
H    -6.778000000     0.612000000     3.707000000
O    -2.761000000    -0.145000000     6.321000000
H    -3.033000000     0.649000000     5.861000000
H    -3.048000000    -0.860000000     5.754000000
O    -2.369000000    -4.387000000     6.693000000
H    -3.117000000    -4.026000000     7.168000000
H    -2.390000000    -3.948000000     5.842000000
O     0.233000000     2.275000000     5.996000000
H     0.530000000     2.969000000     6.584000000
H    -0.705000000     2.437000000     5.889000000
O    -4.639000000    -2.707000000     7.711000000
H    -4.598000000    -2.309000000     6.842000000
H    -4.798000000    -1.973000000     8.304000000
O     2.447000000     0.367000000     8.167000000
H     1.597000000     0.168000000     7.774000000
H     2.277000000     1.115000000     8.740000000
O    -8.277000000     3.062000000     2.618000000
H    -8.837000000     3.267000000     1.869000000
H    -7.830000000     3.885000000     2.816000000
O    -6.637000000     0.072000000     6.955000000
H    -6.913000000    -0.660000000     6.403000000
H    -6.284000000     0.716000000     6.340000000
O    -5.309000000     1.504000000     5.000000000
H    -4.645000000     1.089000000     4.450000000
H    -5.036000000     2.420000000     5.055000000
O     0.569000000     0.025000000     4.658000000
H     0.284000000     0.916000000     4.860000000
H     0.502000000    -0.039000000     3.706000000
O    -4.860000000     4.551000000     4.731000000
H    -4.427000000     5.392000000     4.587000000
H    -5.380000000     4.410000000     3.940000000
O    -0.997000000     0.807000000     9.086000000
H    -0.596000000     0.099000000     8.581000000
H    -1.169000000     0.420000000     9.945000000
O    -4.815000000    -1.959000000     5.160000000
H    -5.006000000    -2.824000000     4.797000000
H    -4.487000000    -1.455000000     4.415000000
O    -8.725000000    -2.507000000     4.117000000
H    -8.219000000    -1.705000000     3.993000000
H    -9.226000000    -2.602000000     3.306000000
O    -6.049000000    -4.901000000     5.039000000
H    -6.124000000    -5.827000000     4.808000000
H    -6.813000000    -4.491000000     4.634000000
O    -0.343000000    -3.210000000     8.780000000
H    -0.553000000    -2.470000000     8.210000000
H    -1.099000000    -3.793000000     8.705000000
O    -2.920000000     2.737000000     8.252000000
H    -2.242000000     2.158000000     8.601000000
H    -2.683000000     2.856000000     7.333000000
O    -0.476000000    -1.123000000     7.088000000
H     0.070000000    -0.785000000     6.378000000
H    -1.365000000    -0.859000000     6.853000000
