215
-1462.80129
C    -2.697000000     4.494000000     0.496000000
H    -3.353000000     3.656000000     0.276000000
C    -1.461000000     4.592000000    -0.262000000
C    -0.489000000     5.496000000     0.167000000
H     0.547000000     5.503000000    -0.162000000
C    -1.217000000     3.811000000    -1.526000000
O    -2.390000000     3.673000000    -2.357000000
H    -0.790000000     2.833000000    -1.262000000
O    -0.300000000     4.432000000    -2.455000000
C     0.621000000     3.665000000    -3.044000000
C     1.972000000     3.741000000    -2.640000000
H     2.222000000     4.392000000    -1.806000000
C     2.824000000     2.694000000    -3.053000000
O     4.000000000     2.481000000    -2.320000000
C     2.424000000     1.791000000    -4.052000000
C     3.464000000     0.720000000    -4.514000000
H     3.387000000     0.594000000    -5.596000000
C     3.308000000    -0.592000000    -3.741000000
C     2.492000000    -1.613000000    -4.218000000
H     1.904000000    -1.532000000    -5.129000000
H     4.465000000     1.050000000    -4.227000000
C     1.111000000     1.862000000    -4.592000000
H     0.868000000     1.147000000    -5.374000000
C     0.244000000     2.834000000    -4.140000000
C    -1.193000000     2.848000000    -4.697000000
H    -1.182000000     2.567000000    -5.752000000
H    -1.425000000     3.915000000    -4.708000000
C    -2.198000000     1.970000000    -3.941000000
C    -2.445000000     0.661000000    -4.342000000
H    -2.023000000     0.303000000    -5.278000000
C    -2.722000000     2.430000000    -2.772000000
C    -3.501000000     1.528000000    -2.000000000
H    -3.945000000     1.783000000    -1.041000000
C    -3.750000000     0.199000000    -2.434000000
O    -4.420000000    -0.659000000    -1.531000000
C    -3.702000000    -1.692000000    -0.835000000
C    -4.160000000    -1.717000000     0.562000000
C    -4.481000000    -2.934000000     1.152000000
H    -4.409000000    -3.859000000     0.586000000
C    -4.203000000    -0.572000000     1.303000000
H    -3.812000000     0.387000000     0.975000000
O    -3.755000000    -2.952000000    -1.515000000
H    -2.653000000    -1.373000000    -0.931000000
C    -3.153000000    -0.252000000    -3.609000000
C    -3.268000000    -1.703000000    -4.172000000
H    -2.947000000    -1.747000000    -5.214000000
H    -4.304000000    -2.007000000    -4.009000000
C    -2.383000000    -2.759000000    -3.442000000
C    -1.126000000    -2.993000000    -4.048000000
H    -0.801000000    -2.430000000    -4.919000000
C    -2.641000000    -3.329000000    -2.192000000
C    -1.708000000    -4.225000000    -1.584000000
H    -1.947000000    -4.593000000    -0.589000000
C    -0.486000000    -4.344000000    -2.201000000
O     0.580000000    -4.913000000    -1.437000000
C     1.276000000    -3.893000000    -0.693000000
C     1.333000000    -4.289000000     0.776000000
C     0.406000000    -5.158000000     1.382000000
H    -0.407000000    -5.638000000     0.843000000
C     2.186000000    -3.597000000     1.636000000
H     2.982000000    -2.957000000     1.264000000
O     2.586000000    -3.902000000    -1.290000000
H     0.800000000    -2.911000000    -0.832000000
C    -0.154000000    -3.713000000    -3.382000000
C     1.245000000    -3.789000000    -3.933000000
H     1.077000000    -3.660000000    -5.005000000
H     1.695000000    -4.770000000    -3.769000000
C     2.184000000    -2.733000000    -3.417000000
C     2.861000000    -2.877000000    -2.175000000
C     3.675000000    -1.793000000    -1.705000000
H     3.940000000    -1.812000000    -0.651000000
C     3.947000000    -0.724000000    -2.491000000
O     4.734000000     0.309000000    -1.982000000
C     3.954000000     1.421000000    -1.354000000
H     2.909000000     1.092000000    -1.252000000
C     4.469000000     1.734000000     0.051000000
C     4.126000000     2.933000000     0.669000000
H     3.682000000     3.718000000     0.062000000
C     5.223000000     0.748000000     0.787000000
H     5.548000000    -0.209000000     0.388000000
C     5.505000000     1.096000000     2.109000000
O     6.332000000     0.263000000     2.830000000
C     5.029000000     2.260000000     2.708000000
H     5.210000000     2.400000000     3.770000000
C     4.300000000     3.198000000     2.001000000
O     3.822000000     4.358000000     2.524000000
C     3.345000000     5.446000000     1.910000000
C     1.977000000     5.748000000     2.092000000
H     1.266000000     5.097000000     2.595000000
C     4.229000000     6.379000000     1.413000000
H     5.296000000     6.191000000     1.331000000
C     3.700000000     7.541000000     0.771000000
H     4.381000000     8.194000000     0.233000000
C     2.348000000     7.891000000     0.899000000
H     2.005000000     8.796000000     0.404000000
C     1.503000000     6.990000000     1.610000000
O     0.140000000     7.213000000     1.686000000
C    -0.742000000     6.233000000     1.300000000
C    -1.918000000     6.099000000     2.032000000
H    -1.968000000     6.571000000     3.011000000
C    -2.944000000     5.297000000     1.583000000
O    -4.032000000     5.242000000     2.337000000
C    -4.828000000     4.155000000     2.491000000
C    -4.320000000     2.867000000     2.804000000
H    -3.249000000     2.924000000     2.979000000
C    -6.181000000     4.185000000     1.999000000
H    -6.571000000     5.137000000     1.649000000
C    -6.905000000     3.003000000     2.030000000
H    -7.924000000     3.053000000     1.657000000
C    -6.395000000     1.821000000     2.545000000
H    -7.001000000     0.926000000     2.662000000
C    -5.059000000     1.739000000     2.877000000
O    -4.524000000     0.581000000     3.427000000
C    -4.504000000    -0.593000000     2.682000000
C    -4.796000000    -1.801000000     3.294000000
H    -4.944000000    -1.906000000     4.366000000
C    -4.731000000    -2.947000000     2.529000000
O    -4.823000000    -4.087000000     3.285000000
C    -3.983000000    -5.223000000     3.127000000
C    -2.565000000    -5.104000000     3.191000000
H    -2.053000000    -4.149000000     3.282000000
C    -4.589000000    -6.472000000     3.162000000
H    -5.659000000    -6.483000000     2.973000000
C    -3.871000000    -7.614000000     3.159000000
H    -4.380000000    -8.574000000     3.188000000
C    -2.451000000    -7.547000000     3.122000000
H    -1.799000000    -8.403000000     3.276000000
C    -1.840000000    -6.283000000     3.186000000
O    -0.496000000    -6.179000000     3.415000000
C     0.300000000    -5.309000000     2.729000000
C     1.252000000    -4.710000000     3.536000000
H     1.309000000    -4.791000000     4.618000000
C     2.233000000    -3.863000000     3.002000000
O     3.121000000    -3.256000000     3.814000000
C     4.376000000    -2.848000000     3.437000000
C     5.320000000    -3.809000000     3.129000000
H     5.204000000    -4.876000000     3.300000000
C     6.606000000    -3.443000000     2.611000000
H     7.366000000    -4.168000000     2.332000000
C     6.895000000    -2.043000000     2.533000000
H     7.878000000    -1.772000000     2.158000000
C     5.966000000    -1.092000000     2.888000000
C     4.672000000    -1.528000000     3.254000000
H     3.902000000    -0.774000000     3.398000000
C    -0.420000000    -0.792000000     2.667000000
H    -0.922000000    -1.529000000     3.289000000
C    -0.162000000    -1.131000000     1.383000000
H    -0.453000000    -2.134000000     1.083000000
C     0.586000000    -0.310000000     0.542000000
H     0.724000000    -0.616000000    -0.507000000
C     0.894000000     0.985000000     1.008000000
H     1.453000000     1.646000000     0.350000000
C     0.672000000     1.345000000     2.352000000
H     1.133000000     2.237000000     2.768000000
C    -0.015000000     0.468000000     3.188000000
C    -0.365000000     0.837000000     4.569000000
O     0.119000000     1.918000000     4.961000000
O    -0.908000000     0.126000000     5.391000000
O    -0.727000000     4.341000000     4.951000000
H    -0.508000000     3.409000000     4.961000000
H    -1.666000000     4.368000000     5.131000000
O    -3.322000000     0.475000000     6.380000000
H    -3.638000000    -0.398000000     6.611000000
H    -2.457000000     0.324000000     6.000000000
O    -1.391000000    -2.110000000     6.651000000
H    -1.442000000    -1.350000000     6.072000000
H    -2.293000000    -2.254000000     6.937000000
O    -0.004000000    -1.886000000     9.201000000
H    -0.171000000    -1.031000000     9.597000000
H    -0.409000000    -1.833000000     8.336000000
O     2.756000000     0.301000000     9.449000000
H     2.465000000     1.070000000     9.939000000
H     2.032000000     0.108000000     8.854000000
O    -3.070000000     4.500000000     6.478000000
H    -3.857000000     3.980000000     6.643000000
H    -2.393000000     4.085000000     7.012000000
O    -1.363000000     2.651000000     7.424000000
H    -1.673000000     2.032000000     8.085000000
H    -1.193000000     2.110000000     6.652000000
O     4.153000000     0.360000000     6.948000000
H     3.654000000     0.279000000     7.761000000
H     3.712000000    -0.229000000     6.337000000
O     2.289000000     2.762000000     5.968000000
H     2.540000000     3.601000000     5.583000000
H     1.432000000     2.570000000     5.586000000
O     0.968000000     0.708000000     7.487000000
H     0.266000000     0.384000000     6.923000000
H     1.485000000     1.283000000     6.922000000
O    -2.447000000     0.241000000     9.399000000
H    -3.374000000     0.109000000     9.201000000
H    -2.269000000    -0.359000000    10.123000000
O    -4.230000000    -2.261000000     7.129000000
H    -4.694000000    -1.990000000     7.921000000
H    -4.529000000    -3.157000000     6.972000000
O     3.360000000     5.136000000     5.681000000
H     2.478000000     5.484000000     5.548000000
H     3.937000000     5.885000000     5.534000000
O     0.959000000     2.631000000     9.526000000
H     1.826000000     2.985000000     9.326000000
H     0.779000000     2.021000000     8.810000000
O     3.442000000     3.320000000     8.504000000
H     3.254000000     3.100000000     7.592000000
H     4.032000000     4.073000000     8.452000000
O     0.874000000     6.480000000     5.511000000
H     0.384000000     5.700000000     5.252000000
H     0.304000000     6.922000000     6.141000000
O    -5.555000000     2.241000000     5.776000000
H    -6.041000000     1.428000000     5.917000000
H    -4.732000000     1.961000000     5.375000000
O    -4.686000000     1.971000000     8.368000000
H    -4.357000000     1.507000000     7.598000000
H    -4.008000000     2.616000000     8.567000000
O     2.016000000    -2.099000000     6.437000000
H     1.508000000    -2.755000000     6.916000000
H     1.808000000    -2.260000000     5.517000000
