215
-1463.45601
C    -2.110000000     4.011000000     1.277000000
H    -2.878000000     3.258000000     1.119000000
C    -1.209000000     4.223000000     0.239000000
C    -0.156000000     5.114000000     0.464000000
H     0.610000000     5.291000000    -0.286000000
C    -1.319000000     3.519000000    -1.091000000
O    -2.660000000     3.433000000    -1.528000000
H    -0.880000000     2.537000000    -0.860000000
O    -0.487000000     4.237000000    -2.116000000
C     0.230000000     3.534000000    -3.025000000
C     1.628000000     3.618000000    -2.848000000
H     2.076000000     4.238000000    -2.075000000
C     2.432000000     2.629000000    -3.453000000
O     3.723000000     2.478000000    -3.073000000
C     1.820000000     1.756000000    -4.295000000
C     2.641000000     0.624000000    -4.916000000
H     2.242000000     0.373000000    -5.901000000
C     2.577000000    -0.553000000    -3.980000000
C     1.686000000    -1.546000000    -4.271000000
H     0.989000000    -1.442000000    -5.098000000
H     3.589000000     1.086000000    -5.198000000
C     0.406000000     1.778000000    -4.570000000
H     0.046000000     1.021000000    -5.262000000
C    -0.418000000     2.698000000    -4.012000000
C    -1.933000000     2.823000000    -4.307000000
H    -2.185000000     2.745000000    -5.367000000
H    -2.134000000     3.884000000    -4.144000000
C    -2.748000000     1.851000000    -3.417000000
C    -3.176000000     0.673000000    -4.056000000
H    -2.943000000     0.514000000    -5.105000000
C    -3.019000000     2.182000000    -2.059000000
C    -3.654000000     1.269000000    -1.232000000
H    -3.928000000     1.410000000    -0.190000000
C    -4.092000000     0.086000000    -1.858000000
O    -4.710000000    -0.922000000    -0.991000000
C    -3.848000000    -1.901000000    -0.344000000
C    -4.229000000    -1.982000000     1.134000000
C    -4.020000000    -3.159000000     1.821000000
H    -3.585000000    -3.976000000     1.251000000
C    -4.616000000    -0.871000000     1.837000000
H    -4.766000000     0.070000000     1.314000000
O    -4.148000000    -3.116000000    -1.111000000
H    -2.790000000    -1.603000000    -0.329000000
C    -3.742000000    -0.277000000    -3.178000000
C    -3.992000000    -1.725000000    -3.708000000
H    -4.017000000    -1.797000000    -4.797000000
H    -4.962000000    -2.028000000    -3.309000000
C    -3.039000000    -2.802000000    -3.233000000
C    -1.846000000    -3.006000000    -3.940000000
H    -1.677000000    -2.393000000    -4.822000000
C    -3.201000000    -3.486000000    -1.985000000
C    -2.202000000    -4.342000000    -1.497000000
H    -2.236000000    -4.730000000    -0.482000000
C    -1.020000000    -4.467000000    -2.170000000
O     0.150000000    -4.897000000    -1.501000000
C     1.025000000    -3.982000000    -0.805000000
C     1.364000000    -4.305000000     0.622000000
C     0.696000000    -5.321000000     1.321000000
H    -0.010000000    -6.035000000     0.905000000
C     2.253000000    -3.427000000     1.225000000
H     2.690000000    -2.616000000     0.648000000
O     2.273000000    -3.875000000    -1.474000000
H     0.470000000    -3.034000000    -0.756000000
C    -0.850000000    -3.793000000    -3.409000000
C     0.542000000    -3.696000000    -4.036000000
H     0.470000000    -3.525000000    -5.112000000
H     1.056000000    -4.651000000    -3.909000000
C     1.516000000    -2.651000000    -3.532000000
C     2.389000000    -2.827000000    -2.396000000
C     3.307000000    -1.849000000    -2.060000000
H     3.933000000    -1.933000000    -1.175000000
C     3.422000000    -0.713000000    -2.864000000
O     4.308000000     0.245000000    -2.437000000
C     3.786000000     1.481000000    -1.960000000
H     2.804000000     1.243000000    -1.523000000
C     4.633000000     1.981000000    -0.828000000
C     4.662000000     3.335000000    -0.571000000
H     4.242000000     4.106000000    -1.212000000
C     5.226000000     1.138000000     0.151000000
H     5.128000000     0.055000000     0.149000000
C     5.888000000     1.688000000     1.265000000
O     6.352000000     0.819000000     2.293000000
C     5.932000000     3.055000000     1.473000000
H     6.478000000     3.394000000     2.349000000
C     5.326000000     3.864000000     0.545000000
O     5.494000000     5.267000000     0.651000000
C     4.380000000     6.100000000     0.554000000
C     3.234000000     5.968000000     1.420000000
H     3.165000000     5.147000000     2.129000000
C     4.358000000     7.186000000    -0.393000000
H     5.239000000     7.333000000    -1.012000000
C     3.228000000     7.982000000    -0.560000000
H     3.143000000     8.700000000    -1.372000000
C     2.091000000     7.710000000     0.245000000
H     1.167000000     8.251000000     0.056000000
C     2.105000000     6.764000000     1.222000000
O     0.972000000     6.604000000     2.009000000
C    -0.077000000     5.737000000     1.740000000
C    -0.991000000     5.495000000     2.756000000
H    -0.933000000     5.823000000     3.791000000
C    -2.074000000     4.623000000     2.512000000
O    -2.750000000     4.112000000     3.685000000
C    -4.015000000     3.529000000     3.530000000
C    -4.080000000     2.157000000     3.787000000
H    -3.178000000     1.627000000     4.081000000
C    -5.169000000     4.264000000     3.157000000
H    -5.159000000     5.323000000     2.910000000
C    -6.419000000     3.572000000     3.061000000
H    -7.319000000     4.159000000     2.891000000
C    -6.454000000     2.196000000     3.370000000
H    -7.388000000     1.650000000     3.259000000
C    -5.316000000     1.482000000     3.713000000
O    -5.398000000     0.118000000     3.950000000
C    -4.889000000    -0.922000000     3.186000000
C    -4.824000000    -2.162000000     3.848000000
H    -5.049000000    -2.298000000     4.903000000
C    -4.362000000    -3.294000000     3.137000000
O    -4.245000000    -4.534000000     3.801000000
C    -3.297000000    -5.556000000     3.545000000
C    -1.948000000    -5.345000000     3.537000000
H    -1.601000000    -4.339000000     3.760000000
C    -3.848000000    -6.825000000     3.341000000
H    -4.928000000    -6.930000000     3.415000000
C    -3.004000000    -7.901000000     3.143000000
H    -3.492000000    -8.835000000     2.880000000
C    -1.619000000    -7.720000000     3.111000000
H    -0.906000000    -8.525000000     2.950000000
C    -1.077000000    -6.457000000     3.397000000
O     0.282000000    -6.293000000     3.433000000
C     0.962000000    -5.394000000     2.666000000
C     1.826000000    -4.543000000     3.248000000
H     1.900000000    -4.574000000     4.332000000
C     2.456000000    -3.510000000     2.593000000
O     3.139000000    -2.544000000     3.223000000
C     4.400000000    -2.203000000     2.852000000
C     5.390000000    -3.176000000     2.682000000
H     5.179000000    -4.215000000     2.922000000
C     6.703000000    -2.864000000     2.249000000
H     7.415000000    -3.654000000     2.022000000
C     7.046000000    -1.503000000     2.250000000
H     8.094000000    -1.257000000     2.104000000
C     6.056000000    -0.504000000     2.403000000
C     4.742000000    -0.897000000     2.634000000
H     4.001000000    -0.156000000     2.923000000
C     0.038000000     0.246000000     2.240000000
H    -0.514000000    -0.402000000     2.915000000
C     0.022000000     0.133000000     0.851000000
H    -0.507000000    -0.749000000     0.499000000
C     0.770000000     0.924000000     0.056000000
H     0.724000000     0.892000000    -1.010000000
C     1.586000000     1.975000000     0.585000000
H     2.041000000     2.712000000    -0.071000000
C     1.603000000     2.137000000     1.961000000
H     2.214000000     2.879000000     2.469000000
C     0.878000000     1.227000000     2.780000000
C     1.109000000     1.313000000     4.295000000
O     1.923000000     2.116000000     4.788000000
O     0.652000000     0.455000000     4.997000000
O     1.547000000     4.757000000     5.824000000
H     1.626000000     3.956000000     5.306000000
H     2.272000000     4.711000000     6.447000000
O    -1.637000000     1.584000000     6.082000000
H    -1.396000000     2.441000000     6.433000000
H    -0.804000000     1.184000000     5.833000000
O    -0.239000000    -2.004000000     6.072000000
H     0.201000000    -1.166000000     5.933000000
H    -1.144000000    -1.768000000     6.278000000
O     0.809000000    -0.896000000     9.822000000
H     0.839000000    -1.408000000    10.630000000
H    -0.072000000    -0.521000000     9.809000000
O     2.982000000    -2.161000000     8.502000000
H     2.485000000    -1.650000000     9.142000000
H     2.617000000    -1.904000000     7.655000000
O    -1.070000000     4.314000000     6.656000000
H    -0.201000000     4.555000000     6.337000000
H    -1.141000000     4.746000000     7.507000000
O     6.531000000     1.496000000     5.751000000
H     6.235000000     0.587000000     5.718000000
H     5.740000000     2.012000000     5.592000000
O     1.408000000     1.804000000     7.383000000
H     1.444000000     1.706000000     6.432000000
H     1.400000000     0.906000000     7.717000000
O    -3.651000000     0.580000000     7.500000000
H    -4.248000000     1.328000000     7.480000000
H    -2.932000000     0.831000000     6.920000000
O    -2.028000000     6.936000000     5.735000000
H    -2.064000000     6.101000000     6.203000000
H    -2.945000000     7.173000000     5.597000000
O     5.273000000    -0.787000000     6.872000000
H     4.353000000    -0.833000000     6.614000000
H     5.399000000    -1.542000000     7.447000000
O     4.297000000     3.090000000     6.028000000
H     4.098000000     2.889000000     6.943000000
H     3.535000000     2.773000000     5.543000000
O     6.297000000     2.110000000     8.339000000
H     5.363000000     2.314000000     8.397000000
H     6.353000000     1.442000000     7.655000000
O     2.681000000    -1.079000000     5.997000000
H     1.906000000    -0.567000000     5.766000000
H     2.708000000    -1.780000000     5.346000000
O     5.864000000     5.124000000     4.845000000
H     5.440000000     4.355000000     5.226000000
H     6.743000000     5.126000000     5.225000000
O     0.500000000     7.402000000     5.164000000
H     0.828000000     6.504000000     5.128000000
H    -0.452000000     7.309000000     5.190000000
O     3.798000000     2.947000000     8.616000000
H     2.896000000     2.683000000     8.433000000
H     3.880000000     2.878000000     9.567000000
O    -3.381000000    -1.920000000     7.202000000
H    -2.777000000    -2.067000000     7.930000000
H    -3.597000000    -0.989000000     7.255000000
O    -0.103000000    -4.473000000     7.668000000
H    -0.763000000    -4.148000000     8.280000000
H     0.074000000    -3.731000000     7.090000000
