215
-1461.05070
C    -3.773000000     3.074000000     0.836000000
H    -4.505000000     2.432000000     0.351000000
C    -2.720000000     3.525000000    -0.018000000
C    -1.656000000     4.325000000     0.504000000
H    -0.840000000     4.629000000    -0.146000000
C    -2.507000000     2.872000000    -1.449000000
O    -3.699000000     2.543000000    -2.214000000
H    -1.963000000     1.930000000    -1.281000000
O    -1.725000000     3.709000000    -2.274000000
C    -0.639000000     3.167000000    -2.957000000
C     0.713000000     3.603000000    -2.707000000
H     0.918000000     4.210000000    -1.828000000
C     1.765000000     3.086000000    -3.433000000
O     3.011000000     3.308000000    -2.787000000
C     1.602000000     2.111000000    -4.404000000
C     2.743000000     1.324000000    -5.083000000
H     2.561000000     0.892000000    -6.069000000
C     2.971000000     0.045000000    -4.189000000
C     2.323000000    -1.183000000    -4.517000000
H     1.653000000    -1.255000000    -5.370000000
H     3.618000000     1.962000000    -5.225000000
C     0.266000000     1.858000000    -4.780000000
H     0.226000000     1.350000000    -5.740000000
C    -0.883000000     2.374000000    -4.070000000
C    -2.261000000     2.029000000    -4.613000000
H    -2.253000000     1.665000000    -5.643000000
H    -2.914000000     2.903000000    -4.579000000
C    -2.920000000     0.967000000    -3.745000000
C    -2.867000000    -0.423000000    -4.198000000
H    -2.255000000    -0.612000000    -5.076000000
C    -3.745000000     1.257000000    -2.683000000
C    -4.217000000     0.195000000    -1.794000000
H    -4.762000000     0.467000000    -0.894000000
C    -4.027000000    -1.112000000    -2.172000000
O    -4.431000000    -2.025000000    -1.243000000
C    -3.547000000    -2.632000000    -0.289000000
C    -4.179000000    -2.873000000     1.063000000
C    -3.662000000    -3.818000000     1.917000000
H    -2.921000000    -4.508000000     1.521000000
C    -5.132000000    -1.961000000     1.472000000
H    -5.500000000    -1.137000000     0.865000000
O    -3.160000000    -3.892000000    -0.920000000
H    -2.699000000    -1.939000000    -0.181000000
C    -3.427000000    -1.400000000    -3.417000000
C    -3.310000000    -2.896000000    -3.693000000
H    -3.263000000    -3.024000000    -4.777000000
H    -4.243000000    -3.381000000    -3.399000000
C    -2.040000000    -3.428000000    -3.027000000
C    -0.846000000    -3.467000000    -3.760000000
H    -0.738000000    -3.053000000    -4.760000000
C    -2.045000000    -3.891000000    -1.726000000
C    -0.854000000    -4.243000000    -1.075000000
H    -0.861000000    -4.621000000    -0.056000000
C     0.319000000    -4.112000000    -1.766000000
O     1.412000000    -4.371000000    -0.980000000
C     2.174000000    -3.214000000    -0.576000000
C     2.655000000    -3.174000000     0.876000000
C     1.754000000    -3.566000000     1.867000000
H     0.783000000    -3.853000000     1.474000000
C     3.958000000    -2.738000000     1.336000000
H     4.760000000    -2.606000000     0.614000000
O     3.287000000    -2.948000000    -1.471000000
H     1.532000000    -2.353000000    -0.814000000
C     0.369000000    -3.750000000    -3.122000000
C     1.666000000    -3.611000000    -3.974000000
H     1.419000000    -3.580000000    -5.038000000
H     2.299000000    -4.485000000    -3.810000000
C     2.377000000    -2.271000000    -3.602000000
C     3.128000000    -2.051000000    -2.420000000
C     3.857000000    -0.933000000    -2.114000000
H     4.414000000    -0.832000000    -1.185000000
C     3.697000000     0.154000000    -2.965000000
O     4.231000000     1.311000000    -2.646000000
C     3.366000000     2.195000000    -1.900000000
H     2.487000000     1.610000000    -1.591000000
C     4.061000000     2.734000000    -0.677000000
C     3.678000000     3.979000000    -0.195000000
H     2.893000000     4.583000000    -0.643000000
C     4.962000000     2.013000000     0.084000000
H     5.318000000     1.028000000    -0.207000000
C     5.562000000     2.525000000     1.203000000
O     6.693000000     2.016000000     1.815000000
C     5.322000000     3.820000000     1.613000000
H     5.760000000     4.300000000     2.484000000
C     4.254000000     4.506000000     0.950000000
O     3.794000000     5.745000000     1.509000000
C     2.599000000     6.246000000     1.211000000
C     1.525000000     5.628000000     1.884000000
H     1.770000000     4.858000000     2.611000000
C     2.424000000     7.251000000     0.257000000
H     3.305000000     7.757000000    -0.130000000
C     1.145000000     7.677000000     0.005000000
H     0.957000000     8.469000000    -0.716000000
C     0.058000000     7.049000000     0.638000000
H    -0.939000000     7.446000000     0.466000000
C     0.201000000     6.039000000     1.607000000
O    -0.811000000     5.543000000     2.361000000
C    -1.815000000     4.755000000     1.833000000
C    -2.861000000     4.400000000     2.663000000
H    -2.930000000     4.733000000     3.696000000
C    -3.869000000     3.580000000     2.165000000
O    -4.845000000     3.172000000     3.103000000
C    -5.851000000     2.301000000     2.855000000
C    -5.631000000     0.928000000     3.056000000
H    -4.629000000     0.578000000     3.293000000
C    -7.119000000     2.802000000     2.738000000
H    -7.352000000     3.863000000     2.726000000
C    -8.150000000     1.947000000     2.574000000
H    -9.137000000     2.323000000     2.316000000
C    -7.965000000     0.592000000     2.769000000
H    -8.869000000    -0.009000000     2.706000000
C    -6.718000000     0.028000000     2.958000000
O    -6.646000000    -1.334000000     3.148000000
C    -5.635000000    -2.089000000     2.727000000
C    -5.166000000    -3.091000000     3.572000000
H    -5.527000000    -3.188000000     4.593000000
C    -4.104000000    -3.887000000     3.210000000
O    -3.529000000    -4.769000000     4.067000000
C    -2.236000000    -5.220000000     4.024000000
C    -1.179000000    -4.285000000     4.104000000
H    -1.304000000    -3.216000000     4.255000000
C    -1.949000000    -6.588000000     3.901000000
H    -2.804000000    -7.258000000     3.875000000
C    -0.658000000    -6.985000000     3.943000000
H    -0.591000000    -8.070000000     3.959000000
C     0.403000000    -6.076000000     4.014000000
H     1.444000000    -6.364000000     4.142000000
C     0.092000000    -4.716000000     4.013000000
O     1.118000000    -3.842000000     4.213000000
C     2.068000000    -3.455000000     3.214000000
C     3.364000000    -3.111000000     3.621000000
H     3.630000000    -3.106000000     4.675000000
C     4.277000000    -2.723000000     2.655000000
O     5.526000000    -2.491000000     3.053000000
C     6.450000000    -1.566000000     2.494000000
C     7.791000000    -1.999000000     2.364000000
H     8.061000000    -3.042000000     2.513000000
C     8.712000000    -1.042000000     1.882000000
H     9.751000000    -1.350000000     1.795000000
C     8.387000000     0.276000000     1.776000000
H     9.131000000     1.000000000     1.453000000
C     7.018000000     0.728000000     1.900000000
C     6.043000000    -0.243000000     2.305000000
H     4.991000000    -0.029000000     2.478000000
C    -0.976000000    -0.168000000     2.574000000
H    -1.421000000    -0.679000000     3.424000000
C    -0.857000000    -0.799000000     1.323000000
H    -1.356000000    -1.738000000     1.095000000
C    -0.137000000    -0.175000000     0.329000000
H    -0.011000000    -0.657000000    -0.663000000
C     0.471000000     1.079000000     0.499000000
H     0.926000000     1.652000000    -0.306000000
C     0.380000000     1.714000000     1.795000000
H     0.865000000     2.680000000     1.912000000
C    -0.410000000     1.137000000     2.798000000
C    -0.676000000     1.757000000     4.164000000
O     0.096000000     2.637000000     4.523000000
O    -1.502000000     1.313000000     4.997000000
O    -0.527000000     3.750000000     6.833000000
H    -0.253000000     3.311000000     6.027000000
H    -0.383000000     3.100000000     7.520000000
O    -2.916000000    -0.850000000     5.898000000
H    -2.470000000    -0.121000000     5.466000000
H    -3.577000000    -1.134000000     5.266000000
O     2.187000000     3.702000000     9.194000000
H     2.609000000     2.931000000     8.814000000
H     1.356000000     3.376000000     9.539000000
O     0.869000000    -3.519000000     6.944000000
H     0.910000000    -3.051000000     6.110000000
H    -0.062000000    -3.531000000     7.166000000
O    -3.780000000     2.513000000     5.535000000
H    -2.969000000     2.083000000     5.267000000
H    -4.019000000     3.062000000     4.788000000
O    -5.554000000     5.645000000     6.600000000
H    -5.437000000     6.269000000     7.317000000
H    -5.111000000     4.851000000     6.900000000
O    -3.418000000    -0.054000000     8.686000000
H    -3.385000000    -0.461000000     7.820000000
H    -3.232000000    -0.769000000     9.294000000
O    -0.956000000     0.742000000     7.694000000
H    -1.199000000     1.128000000     6.852000000
H    -1.790000000     0.514000000     8.104000000
O     4.821000000     2.214000000     5.740000000
H     4.616000000     1.351000000     5.380000000
H     4.374000000     2.829000000     5.158000000
O     4.327000000    -0.672000000     5.498000000
H     4.593000000    -1.302000000     6.168000000
H     3.380000000    -0.591000000     5.607000000
O     2.613000000     4.047000000     5.405000000
H     1.789000000     3.698000000     5.063000000
H     2.585000000     3.851000000     6.342000000
O     0.859000000     6.141000000     6.339000000
H     0.989000000     5.653000000     5.526000000
H     0.455000000     5.511000000     6.935000000
O     1.619000000     0.751000000     5.998000000
H     1.408000000     1.443000000     5.372000000
H     0.810000000     0.619000000     6.492000000
O    -2.038000000     6.313000000     6.975000000
H    -2.451000000     5.705000000     7.589000000
H    -1.366000000     5.791000000     6.537000000
O     2.500000000     0.934000000     8.657000000
H     1.746000000     0.389000000     8.883000000
H     2.715000000     0.684000000     7.759000000
O    -4.325000000     2.773000000     8.180000000
H    -4.199000000     2.599000000     7.247000000
H    -3.892000000     2.042000000     8.620000000
O    -0.439000000     2.661000000    10.077000000
H    -0.570000000     2.437000000    10.998000000
H    -0.885000000     3.501000000     9.969000000
O    -1.694000000    -3.040000000     7.176000000
H    -2.326000000    -3.657000000     7.544000000
H    -2.231000000    -2.333000000     6.817000000
O     0.953000000    -1.534000000     8.902000000
H     0.063000000    -1.257000000     8.687000000
H     0.944000000    -2.484000000     8.782000000
