215
-1424.79558
C    -4.497000000     1.932000000     0.922000000
H    -5.141000000     1.140000000     0.550000000
C    -3.590000000     2.587000000     0.129000000
C    -2.884000000     3.683000000     0.650000000
H    -2.182000000     4.229000000     0.025000000
C    -3.113000000     2.024000000    -1.236000000
O    -4.209000000     1.281000000    -1.891000000
H    -2.263000000     1.355000000    -1.037000000
O    -2.728000000     3.134000000    -2.160000000
C    -1.709000000     2.850000000    -2.989000000
C    -0.524000000     3.480000000    -2.682000000
H    -0.359000000     4.287000000    -1.973000000
C     0.697000000     3.077000000    -3.227000000
O     1.847000000     3.674000000    -2.774000000
C     0.642000000     2.153000000    -4.285000000
C     1.917000000     1.658000000    -4.884000000
H     1.766000000     1.261000000    -5.890000000
C     2.619000000     0.579000000    -4.048000000
C     2.500000000    -0.778000000    -4.415000000
H     1.919000000    -1.117000000    -5.269000000
H     2.687000000     2.426000000    -4.984000000
C    -0.619000000     1.674000000    -4.750000000
H    -0.647000000     0.906000000    -5.518000000
C    -1.780000000     1.940000000    -4.029000000
C    -3.040000000     1.088000000    -4.412000000
H    -2.997000000     0.648000000    -5.410000000
H    -3.903000000     1.756000000    -4.420000000
C    -3.300000000    -0.122000000    -3.581000000
C    -2.736000000    -1.294000000    -3.962000000
H    -2.155000000    -1.408000000    -4.873000000
C    -3.949000000    -0.017000000    -2.383000000
C    -4.251000000    -1.076000000    -1.668000000
H    -4.653000000    -0.963000000    -0.665000000
C    -3.692000000    -2.273000000    -1.992000000
O    -3.809000000    -3.332000000    -1.203000000
C    -2.639000000    -3.560000000    -0.323000000
C    -3.164000000    -3.801000000     1.077000000
C    -2.259000000    -4.368000000     1.968000000
H    -1.277000000    -4.594000000     1.560000000
C    -4.375000000    -3.284000000     1.576000000
H    -5.193000000    -2.835000000     1.018000000
O    -1.867000000    -4.680000000    -0.780000000
H    -1.998000000    -2.666000000    -0.332000000
C    -2.919000000    -2.435000000    -3.178000000
C    -2.223000000    -3.784000000    -3.577000000
H    -2.090000000    -3.728000000    -4.660000000
H    -2.884000000    -4.636000000    -3.403000000
C    -0.862000000    -4.034000000    -2.937000000
C     0.313000000    -3.588000000    -3.607000000
H     0.312000000    -3.306000000    -4.657000000
C    -0.791000000    -4.423000000    -1.585000000
C     0.476000000    -4.532000000    -0.978000000
H     0.526000000    -4.796000000     0.076000000
C     1.647000000    -4.057000000    -1.647000000
O     2.795000000    -3.932000000    -0.899000000
C     3.306000000    -2.603000000    -0.658000000
C     3.821000000    -2.371000000     0.816000000
C     2.955000000    -2.818000000     1.813000000
H     2.035000000    -3.352000000     1.586000000
C     4.959000000    -1.621000000     1.167000000
H     5.519000000    -1.138000000     0.370000000
O     4.264000000    -2.168000000    -1.607000000
H     2.450000000    -1.916000000    -0.722000000
C     1.561000000    -3.638000000    -2.970000000
C     2.843000000    -3.232000000    -3.806000000
H     2.696000000    -3.569000000    -4.834000000
H     3.745000000    -3.762000000    -3.493000000
C     3.077000000    -1.750000000    -3.567000000
C     3.831000000    -1.315000000    -2.501000000
C     4.063000000     0.027000000    -2.266000000
H     4.658000000     0.263000000    -1.387000000
C     3.472000000     0.987000000    -2.958000000
O     3.639000000     2.287000000    -2.519000000
C     2.616000000     2.867000000    -1.810000000
H     1.992000000     2.052000000    -1.416000000
C     3.093000000     3.666000000    -0.563000000
C     2.220000000     4.722000000    -0.081000000
H     1.302000000     4.818000000    -0.655000000
C     4.290000000     3.478000000     0.074000000
H     5.078000000     2.822000000    -0.287000000
C     4.500000000     4.216000000     1.289000000
O     5.692000000     4.086000000     2.017000000
C     3.667000000     5.278000000     1.758000000
H     3.777000000     5.922000000     2.627000000
C     2.505000000     5.555000000     1.021000000
O     1.652000000     6.551000000     1.442000000
C     0.372000000     6.603000000     1.116000000
C    -0.501000000     5.937000000     1.990000000
H    -0.095000000     5.309000000     2.779000000
C    -0.055000000     7.501000000     0.133000000
H     0.594000000     7.984000000    -0.593000000
C    -1.443000000     7.645000000     0.024000000
H    -1.907000000     8.232000000    -0.764000000
C    -2.308000000     6.950000000     0.833000000
H    -3.362000000     6.817000000     0.600000000
C    -1.852000000     6.127000000     1.844000000
O    -2.666000000     5.292000000     2.499000000
C    -3.235000000     4.220000000     1.927000000
C    -4.020000000     3.420000000     2.732000000
H    -4.192000000     3.715000000     3.764000000
C    -4.625000000     2.293000000     2.233000000
O    -5.444000000     1.642000000     3.107000000
C    -6.159000000     0.495000000     2.894000000
C    -5.674000000    -0.763000000     3.196000000
H    -4.655000000    -0.768000000     3.576000000
C    -7.489000000     0.701000000     2.583000000
H    -7.854000000     1.713000000     2.427000000
C    -8.326000000    -0.387000000     2.450000000
H    -9.343000000    -0.195000000     2.116000000
C    -7.836000000    -1.681000000     2.634000000
H    -8.529000000    -2.502000000     2.468000000
C    -6.493000000    -1.889000000     3.032000000
O    -6.082000000    -3.171000000     3.244000000
C    -4.787000000    -3.465000000     2.869000000
C    -3.939000000    -4.173000000     3.702000000
H    -4.313000000    -4.440000000     4.687000000
C    -2.620000000    -4.545000000     3.286000000
O    -1.823000000    -5.113000000     4.192000000
C    -0.401000000    -5.288000000     4.036000000
C     0.425000000    -4.229000000     4.343000000
H    -0.110000000    -3.330000000     4.640000000
C     0.182000000    -6.512000000     3.556000000
H    -0.515000000    -7.278000000     3.228000000
C     1.566000000    -6.567000000     3.370000000
H     2.016000000    -7.400000000     2.837000000
C     2.377000000    -5.442000000     3.683000000
H     3.447000000    -5.439000000     3.488000000
C     1.808000000    -4.283000000     4.091000000
O     2.511000000    -3.067000000     4.158000000
C     3.266000000    -2.495000000     3.167000000
C     4.499000000    -1.951000000     3.545000000
H     4.669000000    -1.657000000     4.577000000
C     5.266000000    -1.405000000     2.488000000
O     6.362000000    -0.678000000     2.835000000
C     6.773000000     0.503000000     2.197000000
C     7.957000000     0.601000000     1.484000000
H     8.627000000    -0.254000000     1.448000000
C     8.438000000     1.814000000     1.056000000
H     9.436000000     1.928000000     0.640000000
C     7.680000000     2.965000000     1.179000000
H     7.915000000     3.945000000     0.771000000
C     6.484000000     2.932000000     1.942000000
C     6.084000000     1.697000000     2.433000000
H     5.163000000     1.651000000     3.009000000
C    -0.413000000    -0.828000000     2.316000000
H    -0.557000000    -1.819000000     2.741000000
C    -0.134000000    -0.731000000     0.965000000
H    -0.162000000    -1.626000000     0.348000000
C    -0.031000000     0.538000000     0.373000000
H     0.082000000     0.567000000    -0.664000000
C    -0.254000000     1.674000000     1.134000000
H    -0.177000000     2.679000000     0.728000000
C    -0.635000000     1.576000000     2.442000000
H    -0.847000000     2.427000000     3.084000000
C    -0.672000000     0.332000000     3.094000000
C    -1.082000000     0.245000000     4.496000000
O    -1.635000000     1.208000000     5.039000000
O    -0.754000000    -0.722000000     5.160000000
O     0.245000000     1.385000000     7.243000000
H    -0.570000000     0.918000000     7.058000000
H     0.859000000     1.067000000     6.582000000
O     0.542000000    -2.020000000     7.042000000
H    -0.135000000    -1.591000000     6.519000000
H     1.238000000    -2.219000000     6.415000000
O    -2.681000000     4.175000000     7.343000000
H    -2.769000000     4.700000000     6.548000000
H    -2.593000000     4.818000000     8.047000000
O     3.262000000     1.843000000     8.095000000
H     3.374000000     2.605000000     8.664000000
H     2.543000000     2.085000000     7.511000000
O    -6.824000000     1.727000000     5.648000000
H    -6.875000000     2.657000000     5.431000000
H    -6.606000000     1.299000000     4.820000000
O    -0.230000000    -0.308000000    10.226000000
H    -0.719000000    -0.992000000     9.768000000
H    -0.611000000     0.511000000     9.910000000
O     1.997000000    -0.030000000     5.400000000
H     2.233000000     0.360000000     4.558000000
H     1.187000000    -0.509000000     5.223000000
O    -2.928000000    -4.288000000     7.293000000
H    -3.161000000    -4.278000000     8.221000000
H    -3.095000000    -3.394000000     6.994000000
O    -2.997000000    -1.591000000     6.424000000
H    -3.472000000    -0.783000000     6.621000000
H    -2.188000000    -1.297000000     6.005000000
O     4.175000000    -0.264000000     6.681000000
H     3.404000000    -0.181000000     6.120000000
H     4.013000000     0.345000000     7.402000000
O     2.433000000     0.806000000     2.921000000
H     1.760000000     0.418000000     2.361000000
H     2.245000000     1.745000000     2.905000000
O    -3.945000000     0.918000000     6.175000000
H    -4.616000000     1.535000000     5.883000000
H    -3.143000000     1.214000000     5.743000000
O     2.168000000     3.650000000     3.987000000
H     1.268000000     3.519000000     4.285000000
H     2.473000000     4.415000000     4.475000000
O     2.419000000    -0.800000000     9.033000000
H     1.490000000    -0.961000000     9.199000000
H     2.453000000     0.104000000     8.720000000
O    -1.849000000     2.025000000     9.190000000
H    -2.793000000     1.900000000     9.281000000
H    -1.761000000     2.733000000     8.552000000
O    -1.810000000    -2.240000000     9.341000000
H    -2.382000000    -2.732000000     9.930000000
H    -2.374000000    -1.998000000     8.606000000
O    -0.405000000     3.870000000     5.125000000
H    -0.838000000     3.021000000     5.216000000
H    -0.949000000     4.471000000     5.634000000
O     1.261000000     4.230000000     7.228000000
H     0.676000000     4.272000000     6.471000000
H     1.776000000     5.035000000     7.177000000
O    -5.542000000    -1.200000000     7.163000000
H    -5.382000000    -0.305000000     6.865000000
H    -4.968000000    -1.739000000     6.618000000
