215
-1444.06861
C    -4.874000000     1.887000000     0.794000000
H    -5.422000000     1.028000000     0.415000000
C    -3.873000000     2.408000000    -0.058000000
C    -3.198000000     3.537000000     0.409000000
H    -2.308000000     3.935000000    -0.073000000
C    -3.404000000     1.803000000    -1.438000000
O    -4.425000000     0.904000000    -1.953000000
H    -2.525000000     1.159000000    -1.289000000
O    -3.109000000     2.832000000    -2.375000000
C    -1.989000000     2.675000000    -3.161000000
C    -0.841000000     3.379000000    -2.832000000
H    -0.865000000     4.152000000    -2.068000000
C     0.317000000     3.144000000    -3.428000000
O     1.434000000     3.820000000    -2.970000000
C     0.457000000     2.201000000    -4.430000000
C     1.766000000     1.704000000    -5.059000000
H     1.541000000     1.169000000    -5.984000000
C     2.464000000     0.764000000    -4.170000000
C     2.365000000    -0.664000000    -4.443000000
H     1.772000000    -1.036000000    -5.276000000
H     2.431000000     2.535000000    -5.304000000
C    -0.679000000     1.392000000    -4.656000000
H    -0.664000000     0.602000000    -5.403000000
C    -1.910000000     1.623000000    -4.047000000
C    -3.098000000     0.700000000    -4.488000000
H    -2.909000000     0.339000000    -5.501000000
H    -3.957000000     1.374000000    -4.446000000
C    -3.324000000    -0.487000000    -3.538000000
C    -2.756000000    -1.744000000    -3.819000000
H    -2.281000000    -1.843000000    -4.792000000
C    -3.914000000    -0.294000000    -2.310000000
C    -4.041000000    -1.338000000    -1.398000000
H    -4.508000000    -1.309000000    -0.416000000
C    -3.431000000    -2.571000000    -1.705000000
O    -3.438000000    -3.479000000    -0.692000000
C    -2.272000000    -3.533000000     0.212000000
C    -2.742000000    -3.724000000     1.651000000
C    -1.933000000    -4.321000000     2.572000000
H    -1.086000000    -4.857000000     2.153000000
C    -3.937000000    -3.211000000     2.158000000
H    -4.683000000    -2.764000000     1.507000000
O    -1.523000000    -4.704000000    -0.208000000
H    -1.654000000    -2.624000000     0.183000000
C    -2.815000000    -2.806000000    -2.908000000
C    -2.207000000    -4.144000000    -3.038000000
H    -2.312000000    -4.370000000    -4.101000000
H    -2.773000000    -4.897000000    -2.485000000
C    -0.750000000    -4.200000000    -2.471000000
C     0.272000000    -3.765000000    -3.334000000
H     0.054000000    -3.405000000    -4.336000000
C    -0.531000000    -4.474000000    -1.100000000
C     0.756000000    -4.413000000    -0.621000000
H     0.867000000    -4.633000000     0.437000000
C     1.776000000    -3.938000000    -1.440000000
O     3.017000000    -3.702000000    -0.806000000
C     3.323000000    -2.313000000    -0.527000000
C     3.848000000    -2.103000000     0.868000000
C     3.232000000    -2.717000000     1.968000000
H     2.367000000    -3.337000000     1.749000000
C     4.854000000    -1.169000000     1.157000000
H     5.376000000    -0.571000000     0.415000000
O     4.261000000    -1.863000000    -1.571000000
H     2.373000000    -1.759000000    -0.549000000
C     1.526000000    -3.589000000    -2.757000000
C     2.708000000    -3.079000000    -3.543000000
H     2.458000000    -3.319000000    -4.579000000
H     3.676000000    -3.566000000    -3.410000000
C     2.984000000    -1.563000000    -3.558000000
C     3.808000000    -1.048000000    -2.594000000
C     4.042000000     0.274000000    -2.419000000
H     4.613000000     0.577000000    -1.545000000
C     3.329000000     1.236000000    -3.173000000
O     3.342000000     2.522000000    -2.742000000
C     2.233000000     3.022000000    -2.050000000
H     1.570000000     2.245000000    -1.641000000
C     2.631000000     4.000000000    -0.947000000
C     1.825000000     5.050000000    -0.406000000
H     0.839000000     5.244000000    -0.821000000
C     3.858000000     3.666000000    -0.303000000
H     4.435000000     2.795000000    -0.600000000
C     4.345000000     4.557000000     0.685000000
O     5.546000000     4.261000000     1.319000000
C     3.574000000     5.661000000     1.144000000
H     3.935000000     6.391000000     1.864000000
C     2.326000000     5.890000000     0.565000000
O     1.519000000     6.955000000     1.063000000
C     0.173000000     6.944000000     0.930000000
C    -0.645000000     6.098000000     1.756000000
H    -0.217000000     5.513000000     2.566000000
C    -0.383000000     7.595000000    -0.098000000
H     0.197000000     8.257000000    -0.736000000
C    -1.806000000     7.551000000    -0.309000000
H    -2.204000000     8.131000000    -1.138000000
C    -2.548000000     6.729000000     0.567000000
H    -3.583000000     6.523000000     0.306000000
C    -1.955000000     5.969000000     1.571000000
O    -2.642000000     5.036000000     2.342000000
C    -3.463000000     4.040000000     1.700000000
C    -4.465000000     3.482000000     2.480000000
H    -4.618000000     3.848000000     3.492000000
C    -5.121000000     2.355000000     2.081000000
O    -6.168000000     1.815000000     2.769000000
C    -6.538000000     0.502000000     2.891000000
C    -5.660000000    -0.399000000     3.481000000
H    -4.713000000    -0.051000000     3.887000000
C    -7.842000000     0.113000000     2.533000000
H    -8.485000000     0.830000000     2.028000000
C    -8.221000000    -1.267000000     2.710000000
H    -9.194000000    -1.612000000     2.370000000
C    -7.270000000    -2.172000000     3.084000000
H    -7.534000000    -3.225000000     3.146000000
C    -6.030000000    -1.749000000     3.530000000
O    -5.260000000    -2.672000000     4.126000000
C    -4.180000000    -3.244000000     3.545000000
C    -3.323000000    -3.810000000     4.458000000
H    -3.487000000    -3.870000000     5.530000000
C    -2.151000000    -4.411000000     3.980000000
O    -1.200000000    -5.029000000     4.784000000
C     0.098000000    -5.220000000     4.347000000
C     1.081000000    -4.261000000     4.676000000
H     0.820000000    -3.444000000     5.343000000
C     0.531000000    -6.403000000     3.700000000
H    -0.125000000    -7.270000000     3.689000000
C     1.855000000    -6.478000000     3.118000000
H     2.256000000    -7.350000000     2.608000000
C     2.700000000    -5.448000000     3.300000000
H     3.723000000    -5.584000000     2.958000000
C     2.318000000    -4.422000000     4.153000000
O     3.174000000    -3.319000000     4.305000000
C     3.777000000    -2.622000000     3.260000000
C     4.993000000    -1.922000000     3.444000000
H     5.372000000    -1.823000000     4.458000000
C     5.459000000    -1.066000000     2.433000000
O     6.484000000    -0.264000000     2.694000000
C     6.748000000     0.831000000     1.889000000
C     7.888000000     0.779000000     1.062000000
H     8.601000000    -0.041000000     1.069000000
C     8.220000000     1.875000000     0.320000000
H     9.083000000     1.913000000    -0.340000000
C     7.356000000     2.927000000     0.320000000
H     7.560000000     3.796000000    -0.300000000
C     6.215000000     3.016000000     1.206000000
C     6.030000000     1.948000000     2.066000000
H     5.166000000     1.919000000     2.725000000
C    -0.674000000    -0.527000000     2.059000000
H    -0.985000000    -1.489000000     2.459000000
C     0.030000000    -0.395000000     0.843000000
H     0.226000000    -1.295000000     0.265000000
C     0.130000000     0.836000000     0.269000000
H     0.635000000     0.809000000    -0.640000000
C    -0.315000000     1.988000000     0.925000000
H    -0.093000000     2.953000000     0.477000000
C    -0.962000000     1.928000000     2.155000000
H    -1.455000000     2.779000000     2.617000000
C    -1.172000000     0.653000000     2.705000000
C    -1.860000000     0.467000000     4.045000000
O    -2.453000000     1.367000000     4.635000000
O    -1.783000000    -0.632000000     4.640000000
O    -1.944000000     1.353000000     7.220000000
H    -2.060000000     1.263000000     6.274000000
H    -1.459000000     2.172000000     7.325000000
O     0.512000000    -0.660000000     6.024000000
H    -0.356000000    -0.761000000     5.634000000
H     0.611000000    -1.426000000     6.590000000
O    -4.265000000     3.240000000     8.181000000
H    -3.851000000     2.653000000     7.548000000
H    -4.968000000     3.664000000     7.689000000
O     2.597000000     1.610000000     8.231000000
H     3.292000000     2.194000000     8.532000000
H     1.913000000     2.197000000     7.909000000
O    -6.305000000     4.193000000     6.731000000
H    -6.837000000     4.653000000     6.081000000
H    -5.964000000     3.430000000     6.264000000
O     1.427000000    -0.674000000     9.096000000
H     0.521000000    -0.454000000     9.314000000
H     1.738000000     0.073000000     8.584000000
O     2.637000000     0.544000000     5.536000000
H     2.603000000     0.574000000     4.580000000
H     1.804000000     0.149000000     5.792000000
O    -0.519000000    -4.112000000     8.201000000
H    -1.070000000    -4.424000000     8.919000000
H    -1.108000000    -3.591000000     7.656000000
O    -2.290000000    -1.837000000     7.187000000
H    -1.796000000    -1.229000000     7.737000000
H    -2.341000000    -1.402000000     6.335000000
O    -0.135000000     3.268000000     9.522000000
H     0.444000000     3.332000000     8.762000000
H    -0.094000000     4.134000000     9.928000000
O     2.835000000     0.882000000     2.391000000
H     2.577000000     1.771000000     2.633000000
H     2.058000000     0.512000000     1.972000000
O    -4.969000000     2.126000000     5.554000000
H    -5.311000000     1.748000000     4.744000000
H    -4.022000000     1.999000000     5.496000000
O     1.893000000     2.901000000     3.998000000
H     1.816000000     2.182000000     4.625000000
H     1.225000000     3.530000000     4.270000000
O    -2.229000000     5.473000000     5.971000000
H    -2.181000000     6.404000000     6.187000000
H    -3.125000000     5.345000000     5.660000000
O    -1.291000000     0.265000000     9.758000000
H    -1.375000000     0.664000000     8.893000000
H    -2.187000000     0.037000000    10.005000000
O    -0.783000000     3.191000000     5.191000000
H    -1.515000000     2.607000000     4.996000000
H    -1.176000000     4.063000000     5.228000000
O     1.051000000     3.652000000     7.262000000
H     0.685000000     3.415000000     6.410000000
H     1.420000000     4.525000000     7.130000000
O    -8.245000000    -0.845000000     6.327000000
H    -7.409000000    -0.393000000     6.441000000
H    -8.004000000    -1.760000000     6.185000000
O    -5.806000000    -0.042000000     7.061000000
H    -5.634000000     0.290000000     7.942000000
H    -5.251000000     0.491000000     6.491000000
