215
-1464.59252
C    -4.863000000     2.301000000     0.037000000
H    -5.547000000     1.635000000    -0.483000000
C    -3.680000000     2.687000000    -0.588000000
C    -2.893000000     3.670000000     0.024000000
H    -1.953000000     4.070000000    -0.347000000
C    -3.033000000     1.994000000    -1.804000000
O    -3.999000000     1.228000000    -2.553000000
H    -2.144000000     1.428000000    -1.490000000
O    -2.532000000     3.020000000    -2.719000000
C    -1.261000000     2.762000000    -3.241000000
C    -0.204000000     3.453000000    -2.670000000
H    -0.274000000     4.159000000    -1.846000000
C     1.056000000     3.189000000    -3.128000000
O     2.065000000     3.719000000    -2.414000000
C     1.254000000     2.233000000    -4.156000000
C     2.718000000     1.890000000    -4.514000000
H     2.768000000     1.484000000    -5.526000000
C     3.308000000     0.870000000    -3.491000000
C     3.194000000    -0.497000000    -3.769000000
H     2.670000000    -0.729000000    -4.693000000
H     3.286000000     2.823000000    -4.501000000
C     0.174000000     1.619000000    -4.784000000
H     0.201000000     0.889000000    -5.589000000
C    -1.121000000     1.902000000    -4.317000000
C    -2.328000000     1.226000000    -4.901000000
H    -2.191000000     0.917000000    -5.939000000
H    -3.220000000     1.852000000    -4.820000000
C    -2.744000000    -0.027000000    -4.127000000
C    -2.074000000    -1.210000000    -4.489000000
H    -1.316000000    -1.209000000    -5.268000000
C    -3.636000000     0.043000000    -3.079000000
C    -3.944000000    -1.097000000    -2.376000000
H    -4.734000000    -1.054000000    -1.631000000
C    -3.220000000    -2.240000000    -2.638000000
O    -3.528000000    -3.342000000    -1.760000000
C    -2.514000000    -3.683000000    -0.805000000
C    -3.126000000    -3.863000000     0.579000000
C    -2.413000000    -4.453000000     1.595000000
H    -1.431000000    -4.871000000     1.389000000
C    -4.290000000    -3.172000000     0.912000000
H    -4.899000000    -2.636000000     0.189000000
O    -1.665000000    -4.781000000    -1.250000000
H    -1.866000000    -2.801000000    -0.691000000
C    -2.272000000    -2.351000000    -3.662000000
C    -1.531000000    -3.571000000    -3.984000000
H    -1.164000000    -3.510000000    -5.010000000
H    -2.087000000    -4.508000000    -3.909000000
C    -0.337000000    -3.793000000    -3.078000000
C     0.869000000    -3.235000000    -3.479000000
H     1.070000000    -2.728000000    -4.419000000
C    -0.398000000    -4.429000000    -1.822000000
C     0.701000000    -4.377000000    -0.983000000
H     0.597000000    -4.691000000     0.053000000
C     1.993000000    -3.942000000    -1.439000000
O     3.010000000    -3.805000000    -0.490000000
C     3.331000000    -2.555000000     0.103000000
C     3.643000000    -2.622000000     1.613000000
C     2.893000000    -3.521000000     2.369000000
H     2.116000000    -4.159000000     1.957000000
C     4.602000000    -1.738000000     2.154000000
H     5.260000000    -1.081000000     1.591000000
O     4.448000000    -2.065000000    -0.596000000
H     2.573000000    -1.776000000    -0.067000000
C     2.078000000    -3.383000000    -2.666000000
C     3.404000000    -2.913000000    -3.179000000
H     3.356000000    -2.915000000    -4.270000000
H     4.142000000    -3.621000000    -2.798000000
C     3.702000000    -1.448000000    -2.880000000
C     4.278000000    -1.096000000    -1.654000000
C     4.433000000     0.246000000    -1.367000000
H     4.750000000     0.522000000    -0.364000000
C     3.989000000     1.212000000    -2.312000000
O     4.051000000     2.509000000    -1.853000000
C     2.787000000     2.941000000    -1.381000000
H     2.226000000     2.008000000    -1.220000000
C     2.927000000     3.763000000    -0.113000000
C     2.258000000     4.969000000     0.094000000
H     1.636000000     5.419000000    -0.675000000
C     3.714000000     3.225000000     0.895000000
H     3.993000000     2.175000000     0.864000000
C     3.966000000     4.015000000     2.070000000
O     4.490000000     3.492000000     3.183000000
C     3.312000000     5.227000000     2.265000000
H     3.376000000     5.697000000     3.243000000
C     2.496000000     5.679000000     1.243000000
O     1.813000000     6.833000000     1.424000000
C     0.538000000     6.980000000     0.930000000
C    -0.452000000     6.204000000     1.499000000
H    -0.123000000     5.434000000     2.193000000
C     0.172000000     7.898000000    -0.030000000
H     0.962000000     8.452000000    -0.531000000
C    -1.151000000     8.083000000    -0.358000000
H    -1.438000000     8.849000000    -1.074000000
C    -2.112000000     7.192000000     0.163000000
H    -3.164000000     7.318000000    -0.079000000
C    -1.787000000     6.247000000     1.156000000
O    -2.693000000     5.422000000     1.797000000
C    -3.360000000     4.350000000     1.203000000
C    -4.518000000     3.868000000     1.828000000
H    -4.877000000     4.271000000     2.771000000
C    -5.274000000     2.889000000     1.206000000
O    -6.231000000     2.224000000     1.946000000
C    -6.754000000     0.913000000     1.664000000
C    -5.995000000    -0.155000000     2.160000000
H    -5.030000000    -0.189000000     2.660000000
C    -7.942000000     0.807000000     1.025000000
H    -8.454000000     1.671000000     0.608000000
C    -8.487000000    -0.480000000     0.910000000
H    -9.422000000    -0.584000000     0.365000000
C    -7.794000000    -1.605000000     1.409000000
H    -8.198000000    -2.598000000     1.229000000
C    -6.515000000    -1.434000000     1.941000000
O    -5.955000000    -2.588000000     2.463000000
C    -4.714000000    -3.124000000     2.201000000
C    -4.046000000    -3.797000000     3.161000000
H    -4.573000000    -3.859000000     4.110000000
C    -2.882000000    -4.357000000     2.904000000
O    -2.145000000    -4.907000000     3.998000000
C    -0.931000000    -5.464000000     3.784000000
C     0.201000000    -4.658000000     3.967000000
H     0.116000000    -3.591000000     4.158000000
C    -0.863000000    -6.839000000     3.755000000
H    -1.744000000    -7.434000000     3.530000000
C     0.384000000    -7.518000000     3.784000000
H     0.478000000    -8.600000000     3.823000000
C     1.476000000    -6.677000000     3.920000000
H     2.490000000    -7.047000000     4.050000000
C     1.467000000    -5.315000000     4.061000000
O     2.626000000    -4.673000000     4.484000000
C     3.128000000    -3.623000000     3.762000000
C     4.116000000    -2.865000000     4.335000000
H     4.358000000    -2.913000000     5.394000000
C     4.763000000    -1.827000000     3.586000000
O     5.760000000    -1.013000000     4.218000000
C     6.037000000     0.183000000     3.615000000
C     7.320000000     0.467000000     3.106000000
H     8.060000000    -0.329000000     3.151000000
C     7.633000000     1.725000000     2.597000000
H     8.648000000     1.829000000     2.222000000
C     6.724000000     2.740000000     2.575000000
H     6.887000000     3.674000000     2.043000000
C     5.435000000     2.462000000     3.133000000
C     5.125000000     1.235000000     3.594000000
H     4.163000000     1.124000000     4.089000000
C    -1.264000000    -0.327000000     2.319000000
H    -1.595000000    -1.294000000     2.688000000
C    -0.274000000    -0.347000000     1.374000000
H     0.142000000    -1.251000000     0.936000000
C     0.349000000     0.786000000     0.962000000
H     1.209000000     0.707000000     0.375000000
C    -0.120000000     2.022000000     1.382000000
H     0.331000000     2.898000000     0.924000000
C    -1.119000000     2.064000000     2.305000000
H    -1.550000000     2.993000000     2.670000000
C    -1.694000000     0.848000000     2.863000000
C    -2.762000000     0.757000000     3.900000000
O    -3.448000000     1.745000000     4.083000000
O    -2.747000000    -0.118000000     4.783000000
O    -3.753000000    -0.689000000     8.766000000
H    -2.817000000    -0.861000000     8.862000000
H    -3.806000000     0.245000000     8.561000000
O     2.179000000    -0.714000000     7.189000000
H     2.022000000     0.134000000     7.604000000
H     1.411000000    -0.856000000     6.636000000
O    -3.981000000     1.515000000     7.067000000
H    -3.712000000     1.196000000     6.206000000
H    -4.189000000     2.439000000     6.926000000
O    -1.388000000    -2.269000000     7.323000000
H    -1.387000000    -1.366000000     7.006000000
H    -0.934000000    -2.228000000     8.165000000
O    -0.652000000     2.669000000     6.707000000
H    -1.369000000     3.199000000     7.057000000
H    -0.237000000     3.230000000     6.053000000
O     0.607000000     4.523000000     5.121000000
H     1.024000000     3.842000000     4.593000000
H     1.330000000     5.083000000     5.404000000
O    -5.498000000     6.257000000     4.410000000
H    -4.686000000     5.757000000     4.495000000
H    -5.222000000     7.105000000     4.064000000
O    -0.130000000     0.090000000     5.908000000
H    -0.302000000     0.935000000     6.323000000
H    -0.896000000    -0.066000000     5.356000000
O    -4.884000000    -1.509000000     5.886000000
H    -4.550000000    -1.417000000     6.778000000
H    -4.221000000    -1.089000000     5.337000000
O    -1.611000000     6.272000000     4.586000000
H    -2.263000000     5.623000000     4.323000000
H    -0.965000000     5.774000000     5.087000000
O     1.482000000     1.549000000     4.229000000
H     0.958000000     0.943000000     4.752000000
H     1.160000000     1.434000000     3.335000000
O    -5.985000000     2.705000000     4.538000000
H    -5.135000000     2.267000000     4.563000000
H    -6.315000000     2.538000000     3.655000000
O    -3.187000000     4.261000000     4.898000000
H    -2.950000000     3.992000000     5.785000000
H    -3.310000000     3.439000000     4.423000000
O    -3.514000000    -4.459000000     6.752000000
H    -2.627000000    -4.803000000     6.862000000
H    -3.393000000    -3.627000000     6.295000000
O     1.002000000     1.598000000     8.732000000
H     0.503000000     2.256000000     8.250000000
H     1.673000000     2.098000000     9.196000000
O    -7.521000000    -0.141000000     5.368000000
H    -6.674000000    -0.213000000     5.809000000
H    -8.164000000    -0.329000000     6.052000000
O    -3.010000000     4.524000000     7.752000000
H    -3.283000000     5.404000000     8.012000000
H    -3.420000000     3.946000000     8.394000000
O    -6.552000000     1.915000000     8.540000000
H    -6.473000000     1.014000000     8.855000000
H    -6.182000000     1.893000000     7.658000000
O    -6.216000000    -3.837000000     6.572000000
H    -5.396000000    -4.330000000     6.574000000
H    -6.020000000    -3.048000000     6.067000000
