215
-1465.73314
C    -4.945000000     2.024000000     0.771000000
H    -5.228000000     0.978000000     0.684000000
C    -4.104000000     2.623000000    -0.121000000
C    -3.622000000     3.849000000     0.087000000
H    -2.965000000     4.194000000    -0.708000000
C    -3.537000000     1.883000000    -1.359000000
O    -4.485000000     0.877000000    -1.842000000
H    -2.591000000     1.440000000    -1.014000000
O    -3.221000000     2.781000000    -2.503000000
C    -2.130000000     2.508000000    -3.337000000
C    -0.954000000     3.201000000    -3.109000000
H    -0.897000000     3.981000000    -2.354000000
C     0.258000000     2.748000000    -3.713000000
O     1.433000000     3.422000000    -3.292000000
C     0.239000000     1.682000000    -4.603000000
C     1.536000000     1.236000000    -5.246000000
H     1.361000000     0.678000000    -6.169000000
C     2.349000000     0.342000000    -4.356000000
C     2.107000000    -0.997000000    -4.390000000
H     1.306000000    -1.452000000    -4.967000000
H     2.194000000     2.082000000    -5.451000000
C    -0.951000000     1.057000000    -4.947000000
H    -0.932000000     0.229000000    -5.650000000
C    -2.137000000     1.409000000    -4.266000000
C    -3.354000000     0.465000000    -4.485000000
H    -3.415000000     0.011000000    -5.476000000
H    -4.194000000     1.162000000    -4.450000000
C    -3.540000000    -0.627000000    -3.447000000
C    -3.004000000    -1.946000000    -3.545000000
H    -2.469000000    -2.189000000    -4.460000000
C    -4.042000000    -0.328000000    -2.183000000
C    -4.170000000    -1.241000000    -1.128000000
H    -4.520000000    -0.921000000    -0.150000000
C    -3.698000000    -2.579000000    -1.348000000
O    -3.696000000    -3.461000000    -0.261000000
C    -2.436000000    -3.413000000     0.493000000
C    -2.689000000    -3.545000000     1.980000000
C    -1.837000000    -4.248000000     2.784000000
H    -1.035000000    -4.775000000     2.273000000
C    -3.682000000    -2.797000000     2.558000000
H    -4.415000000    -2.234000000     1.986000000
O    -1.597000000    -4.461000000     0.079000000
H    -1.943000000    -2.456000000     0.268000000
C    -3.113000000    -2.896000000    -2.561000000
C    -2.310000000    -4.183000000    -2.736000000
H    -2.220000000    -4.460000000    -3.789000000
H    -2.807000000    -4.983000000    -2.184000000
C    -0.877000000    -3.986000000    -2.239000000
C     0.222000000    -3.723000000    -3.133000000
H     0.027000000    -3.524000000    -4.184000000
C    -0.587000000    -4.252000000    -0.880000000
C     0.726000000    -4.302000000    -0.423000000
H     0.941000000    -4.519000000     0.620000000
C     1.757000000    -3.946000000    -1.332000000
O     2.985000000    -3.765000000    -0.810000000
C     3.423000000    -2.401000000    -0.628000000
C     4.080000000    -2.266000000     0.778000000
C     3.514000000    -2.909000000     1.845000000
H     2.711000000    -3.637000000     1.769000000
C     5.037000000    -1.253000000     1.020000000
H     5.270000000    -0.557000000     0.217000000
O     4.266000000    -2.075000000    -1.670000000
H     2.577000000    -1.699000000    -0.584000000
C     1.515000000    -3.625000000    -2.696000000
C     2.617000000    -3.344000000    -3.696000000
H     2.378000000    -3.680000000    -4.707000000
H     3.513000000    -3.924000000    -3.467000000
C     2.904000000    -1.862000000    -3.656000000
C     3.806000000    -1.357000000    -2.669000000
C     3.937000000     0.038000000    -2.581000000
H     4.490000000     0.519000000    -1.778000000
C     3.202000000     0.830000000    -3.398000000
O     3.376000000     2.159000000    -3.181000000
C     2.321000000     2.689000000    -2.382000000
H     1.729000000     1.901000000    -1.893000000
C     2.647000000     3.615000000    -1.288000000
C     1.703000000     4.338000000    -0.550000000
H     0.669000000     4.340000000    -0.884000000
C     3.959000000     3.653000000    -0.826000000
H     4.742000000     3.086000000    -1.323000000
C     4.364000000     4.439000000     0.215000000
O     5.727000000     4.451000000     0.605000000
C     3.385000000     5.067000000     0.978000000
H     3.683000000     5.622000000     1.864000000
C     2.097000000     5.017000000     0.615000000
O     1.149000000     5.640000000     1.322000000
C     0.040000000     6.136000000     0.773000000
C    -1.251000000     5.818000000     1.260000000
H    -1.380000000     5.133000000     2.095000000
C     0.189000000     7.146000000    -0.160000000
H     1.176000000     7.462000000    -0.490000000
C    -1.004000000     7.757000000    -0.667000000
H    -0.820000000     8.572000000    -1.363000000
C    -2.306000000     7.359000000    -0.334000000
H    -3.187000000     7.923000000    -0.627000000
C    -2.394000000     6.329000000     0.662000000
O    -3.619000000     5.938000000     1.274000000
C    -4.080000000     4.654000000     1.178000000
C    -4.946000000     4.078000000     2.095000000
H    -5.322000000     4.612000000     2.964000000
C    -5.389000000     2.738000000     1.895000000
O    -6.243000000     2.223000000     2.857000000
C    -6.471000000     0.869000000     3.071000000
C    -5.424000000     0.103000000     3.622000000
H    -4.449000000     0.539000000     3.823000000
C    -7.702000000     0.383000000     2.904000000
H    -8.531000000     0.995000000     2.557000000
C    -7.979000000    -0.889000000     3.345000000
H    -8.966000000    -1.341000000     3.282000000
C    -6.975000000    -1.739000000     3.856000000
H    -7.259000000    -2.730000000     4.202000000
C    -5.691000000    -1.183000000     4.022000000
O    -4.719000000    -1.926000000     4.583000000
C    -3.812000000    -2.754000000     3.934000000
C    -2.912000000    -3.434000000     4.773000000
H    -3.111000000    -3.595000000     5.829000000
C    -1.873000000    -4.163000000     4.185000000
O    -0.921000000    -4.880000000     4.932000000
C     0.376000000    -5.145000000     4.489000000
C     1.394000000    -4.147000000     4.597000000
H     1.073000000    -3.169000000     4.943000000
C     0.697000000    -6.465000000     4.138000000
H    -0.107000000    -7.189000000     4.231000000
C     2.069000000    -6.693000000     3.791000000
H     2.268000000    -7.739000000     3.573000000
C     3.018000000    -5.681000000     3.811000000
H     4.070000000    -5.870000000     3.612000000
C     2.690000000    -4.428000000     4.292000000
O     3.561000000    -3.478000000     4.243000000
C     4.044000000    -2.741000000     3.139000000
C     5.103000000    -1.838000000     3.336000000
H     5.529000000    -1.607000000     4.309000000
C     5.576000000    -1.012000000     2.298000000
O     6.330000000     0.121000000     2.606000000
C     6.657000000     1.099000000     1.751000000
C     7.849000000     1.075000000     1.120000000
H     8.487000000     0.205000000     1.251000000
C     8.348000000     2.054000000     0.375000000
H     9.350000000     2.010000000    -0.043000000
C     7.687000000     3.249000000     0.297000000
H     8.289000000     4.010000000    -0.193000000
C     6.404000000     3.321000000     0.844000000
C     5.812000000     2.218000000     1.541000000
H     4.810000000     2.286000000     1.956000000
C    -0.317000000    -0.274000000     3.997000000
H    -0.197000000    -0.751000000     4.966000000
C     0.431000000    -0.688000000     2.901000000
H     1.184000000    -1.466000000     2.993000000
C     0.254000000    -0.029000000     1.709000000
H     0.867000000    -0.295000000     0.893000000
C    -0.733000000     0.881000000     1.531000000
H    -0.948000000     1.495000000     0.660000000
C    -1.547000000     1.270000000     2.602000000
H    -2.312000000     2.033000000     2.477000000
C    -1.382000000     0.648000000     3.853000000
C    -2.160000000     1.140000000     5.105000000
O    -3.023000000     1.989000000     5.031000000
O    -1.846000000     0.716000000     6.184000000
O    -2.316000000     2.585000000     8.073000000
H    -2.437000000     2.044000000     7.293000000
H    -1.619000000     3.196000000     7.834000000
O     0.500000000    -0.210000000     7.395000000
H    -0.410000000    -0.103000000     7.117000000
H     0.893000000     0.653000000     7.267000000
O     2.690000000    -1.938000000     7.233000000
H     2.563000000    -2.850000000     7.493000000
H     1.932000000    -1.478000000     7.594000000
O    -4.331000000     4.396000000     7.816000000
H    -3.617000000     3.761000000     7.867000000
H    -4.877000000     4.086000000     7.093000000
O     3.529000000     0.452000000     5.846000000
H     2.966000000     1.028000000     6.363000000
H     3.114000000    -0.408000000     5.908000000
O     0.070000000    -1.476000000     9.653000000
H     0.204000000    -1.079000000     8.792000000
H     0.904000000    -1.352000000    10.106000000
O    -3.619000000    -0.960000000     6.992000000
H    -3.805000000    -1.452000000     6.192000000
H    -2.895000000    -0.380000000     6.753000000
O     3.952000000     3.245000000     4.507000000
H     3.206000000     2.948000000     3.987000000
H     4.328000000     2.441000000     4.867000000
O     1.808000000     2.424000000     2.696000000
H     1.275000000     1.639000000     2.573000000
H     1.224000000     3.044000000     3.133000000
O    -5.428000000     2.367000000     6.004000000
H    -6.010000000     2.360000000     5.243000000
H    -4.550000000     2.278000000     5.634000000
O     0.713000000     3.983000000     4.895000000
H    -0.208000000     4.243000000     4.877000000
H     1.184000000     4.784000000     5.124000000
O    -5.238000000     2.435000000     9.913000000
H    -4.795000000     3.118000000     9.409000000
H    -5.218000000     1.666000000     9.344000000
O    -8.104000000     1.115000000     6.105000000
H    -8.863000000     1.261000000     6.669000000
H    -7.464000000     0.685000000     6.672000000
O    -1.203000000     1.119000000    10.582000000
H    -1.658000000     1.432000000     9.801000000
H    -0.929000000     0.229000000    10.361000000
O    -1.906000000     4.832000000     4.515000000
H    -2.353000000     4.000000000     4.672000000
H    -2.608000000     5.483000000     4.505000000
O    -0.285000000     5.543000000     7.855000000
H    -0.820000000     5.733000000     8.626000000
H    -0.513000000     6.231000000     7.230000000
O    -5.503000000     0.662000000     8.078000000
H    -4.871000000     0.074000000     7.664000000
H    -5.592000000     1.390000000     7.462000000
O    -3.146000000    -3.067000000     9.112000000
H    -3.863000000    -3.062000000     9.746000000
H    -3.476000000    -2.556000000     8.373000000
O     1.680000000     2.286000000     6.826000000
H     2.137000000     3.067000000     7.139000000
H     1.050000000     2.618000000     6.186000000
