215
-1425.78821
C     0.389000000     3.099000000    -4.373000000
H     0.283000000     2.347000000    -5.152000000
C     1.379000000     3.055000000    -3.330000000
C     1.225000000     4.073000000    -2.339000000
H     1.874000000     4.059000000    -1.467000000
C     2.368000000     1.875000000    -3.146000000
O     2.386000000     0.970000000    -4.251000000
H     1.821000000     1.403000000    -2.316000000
O     3.648000000     2.233000000    -2.619000000
C     4.130000000     1.459000000    -1.541000000
C     4.027000000     1.980000000    -0.282000000
H     3.575000000     2.960000000    -0.150000000
C     4.460000000     1.240000000     0.840000000
O     4.342000000     1.898000000     2.085000000
C     4.826000000    -0.077000000     0.621000000
C     5.231000000    -0.905000000     1.863000000
H     5.976000000    -1.662000000     1.610000000
C     4.033000000    -1.616000000     2.532000000
C     3.721000000    -2.890000000     2.074000000
H     4.362000000    -3.414000000     1.369000000
H     5.776000000    -0.289000000     2.582000000
C     4.896000000    -0.633000000    -0.681000000
H     5.029000000    -1.705000000    -0.806000000
C     4.579000000     0.131000000    -1.821000000
C     4.745000000    -0.490000000    -3.236000000
H     5.570000000    -1.205000000    -3.269000000
H     5.002000000     0.340000000    -3.898000000
C     3.359000000    -1.107000000    -3.593000000
C     3.138000000    -2.436000000    -3.326000000
H     3.944000000    -3.021000000    -2.890000000
C     2.270000000    -0.385000000    -4.164000000
C     1.009000000    -0.941000000    -4.450000000
H     0.237000000    -0.428000000    -5.018000000
C     0.829000000    -2.302000000    -4.171000000
O    -0.416000000    -2.782000000    -4.308000000
C    -1.296000000    -2.746000000    -3.145000000
C    -2.736000000    -2.377000000    -3.411000000
C    -3.796000000    -3.006000000    -2.765000000
H    -3.570000000    -3.850000000    -2.118000000
C    -3.028000000    -1.272000000    -4.181000000
H    -2.237000000    -0.808000000    -4.764000000
O    -1.228000000    -4.040000000    -2.504000000
H    -1.013000000    -1.910000000    -2.489000000
C     1.902000000    -3.079000000    -3.570000000
C     1.675000000    -4.439000000    -3.100000000
H     2.588000000    -5.038000000    -3.114000000
H     1.147000000    -5.035000000    -3.847000000
C     1.004000000    -4.474000000    -1.693000000
C     1.841000000    -4.633000000    -0.548000000
H     2.901000000    -4.871000000    -0.587000000
C    -0.354000000    -4.262000000    -1.463000000
C    -0.934000000    -4.239000000    -0.223000000
H    -2.016000000    -4.266000000    -0.119000000
C    -0.129000000    -4.518000000     0.858000000
O    -0.712000000    -4.400000000     2.148000000
C    -0.582000000    -3.155000000     2.822000000
C    -1.842000000    -2.507000000     3.396000000
C    -3.052000000    -2.758000000     2.758000000
H    -3.119000000    -3.370000000     1.862000000
C    -1.780000000    -1.585000000     4.480000000
H    -0.818000000    -1.393000000     4.948000000
O     0.497000000    -3.300000000     3.827000000
H    -0.313000000    -2.439000000     2.032000000
C     1.249000000    -4.663000000     0.693000000
C     2.167000000    -4.826000000     1.905000000
H     3.014000000    -5.417000000     1.550000000
H     1.677000000    -5.429000000     2.673000000
C     2.505000000    -3.498000000     2.505000000
C     1.715000000    -2.802000000     3.446000000
C     1.958000000    -1.506000000     3.797000000
H     1.344000000    -1.010000000     4.544000000
C     3.085000000    -0.893000000     3.308000000
O     3.202000000     0.399000000     3.725000000
C     3.153000000     1.523000000     2.811000000
H     2.377000000     1.323000000     2.057000000
C     2.542000000     2.716000000     3.508000000
C     2.480000000     3.960000000     2.897000000
H     2.884000000     4.180000000     1.913000000
C     1.858000000     2.552000000     4.705000000
H     1.807000000     1.575000000     5.181000000
C     1.256000000     3.616000000     5.277000000
O     0.436000000     3.511000000     6.484000000
C     1.310000000     4.887000000     4.725000000
H     0.939000000     5.793000000     5.196000000
C     1.844000000     4.998000000     3.478000000
O     1.914000000     6.273000000     2.930000000
C     1.879000000     6.629000000     1.671000000
C     1.145000000     5.934000000     0.682000000
H     0.572000000     5.038000000     0.907000000
C     2.448000000     7.826000000     1.286000000
H     2.850000000     8.387000000     2.125000000
C     2.329000000     8.389000000     0.036000000
H     2.846000000     9.326000000    -0.155000000
C     1.556000000     7.720000000    -0.872000000
H     1.383000000     8.099000000    -1.876000000
C     0.980000000     6.459000000    -0.585000000
O    -0.017000000     5.907000000    -1.382000000
C     0.179000000     4.960000000    -2.347000000
C    -0.744000000     4.974000000    -3.360000000
H    -1.543000000     5.709000000    -3.419000000
C    -0.605000000     4.046000000    -4.417000000
O    -1.616000000     3.998000000    -5.345000000
C    -2.170000000     2.824000000    -5.887000000
C    -3.059000000     1.993000000    -5.131000000
H    -3.301000000     2.199000000    -4.091000000
C    -1.941000000     2.490000000    -7.273000000
H    -1.209000000     3.044000000    -7.856000000
C    -2.500000000     1.326000000    -7.819000000
H    -2.204000000     1.070000000    -8.833000000
C    -3.343000000     0.560000000    -7.062000000
H    -3.568000000    -0.422000000    -7.471000000
C    -3.756000000     0.959000000    -5.819000000
O    -4.715000000     0.156000000    -5.160000000
C    -4.337000000    -0.765000000    -4.266000000
C    -5.399000000    -1.375000000    -3.585000000
H    -6.428000000    -1.290000000    -3.925000000
C    -5.071000000    -2.452000000    -2.805000000
O    -6.085000000    -3.268000000    -2.299000000
C    -6.080000000    -3.693000000    -0.931000000
C    -5.584000000    -2.766000000     0.039000000
H    -5.431000000    -1.721000000    -0.218000000
C    -6.534000000    -5.010000000    -0.527000000
H    -6.953000000    -5.674000000    -1.279000000
C    -6.627000000    -5.332000000     0.777000000
H    -7.045000000    -6.280000000     1.108000000
C    -6.198000000    -4.327000000     1.757000000
H    -6.284000000    -4.519000000     2.823000000
C    -5.717000000    -3.064000000     1.374000000
O    -5.368000000    -2.090000000     2.289000000
C    -4.182000000    -2.030000000     3.074000000
C    -4.112000000    -1.119000000     4.122000000
H    -5.025000000    -0.559000000     4.308000000
C    -2.923000000    -0.849000000     4.766000000
O    -2.973000000     0.266000000     5.613000000
C    -1.930000000     0.734000000     6.413000000
C    -1.409000000     0.020000000     7.438000000
H    -2.018000000    -0.842000000     7.702000000
C    -0.350000000     0.362000000     8.280000000
H    -0.108000000    -0.299000000     9.109000000
C     0.266000000     1.572000000     7.963000000
H     1.099000000     1.904000000     8.578000000
C    -0.138000000     2.256000000     6.805000000
C    -1.209000000     1.853000000     6.019000000
H    -1.468000000     2.496000000     5.181000000
C    -2.409000000     0.501000000    -0.387000000
H    -3.430000000     0.159000000    -0.539000000
C    -1.464000000    -0.490000000    -0.165000000
H    -1.809000000    -1.506000000     0.008000000
C    -0.137000000    -0.234000000    -0.173000000
H     0.566000000    -0.988000000     0.092000000
C     0.260000000     1.074000000    -0.239000000
H     1.286000000     1.335000000     0.011000000
C    -0.670000000     2.125000000    -0.381000000
H    -0.399000000     3.164000000    -0.207000000
C    -2.077000000     1.833000000    -0.505000000
C    -3.135000000     2.952000000    -0.612000000
O    -2.947000000     4.028000000    -0.123000000
O    -4.048000000     2.713000000    -1.276000000
O    -6.155000000     4.898000000     4.202000000
H    -5.225000000     4.972000000     3.992000000
H    -6.565000000     5.629000000     3.739000000
O    -2.209000000     8.992000000    -1.034000000
H    -3.049000000     9.263000000    -1.404000000
H    -2.438000000     8.349000000    -0.363000000
O    -4.330000000     5.444000000    -3.297000000
H    -4.988000000     4.979000000    -3.813000000
H    -4.021000000     4.795000000    -2.663000000
O    -1.455000000     1.527000000     2.603000000
H    -1.303000000     1.003000000     1.816000000
H    -1.879000000     0.925000000     3.214000000
O    -2.874000000     6.616000000     0.493000000
H    -2.134000000     6.695000000     1.096000000
H    -2.699000000     5.812000000     0.004000000
O    -0.990000000     7.109000000     2.419000000
H    -1.056000000     6.267000000     2.870000000
H    -0.162000000     7.480000000     2.725000000
O    -3.678000000     7.518000000    -4.998000000
H    -3.915000000     6.896000000    -4.310000000
H    -3.145000000     7.008000000    -5.608000000
O    -6.052000000     1.817000000     2.495000000
H    -5.900000000     2.762000000     2.521000000
H    -6.712000000     1.662000000     3.170000000
O    -8.886000000     3.919000000    -3.885000000
H    -8.080000000     3.702000000    -3.415000000
H    -8.679000000     3.756000000    -4.805000000
O    -5.688000000     0.871000000    -0.055000000
H    -5.504000000     1.220000000     0.816000000
H    -5.135000000     1.387000000    -0.642000000
O    -7.931000000     5.783000000     1.091000000
H    -7.617000000     6.680000000     1.206000000
H    -7.220000000     5.338000000     0.628000000
O    -4.153000000     8.781000000     1.698000000
H    -3.765000000     7.952000000     1.420000000
H    -3.556000000     9.111000000     2.370000000
O    -8.199000000     0.163000000    -1.828000000
H    -7.940000000     0.445000000    -2.705000000
H    -7.420000000     0.310000000    -1.290000000
O    -5.689000000     4.849000000    -0.210000000
H    -4.821000000     4.448000000    -0.186000000
H    -6.214000000     4.254000000    -0.745000000
O    -6.523000000     3.196000000    -2.265000000
H    -5.570000000     3.155000000    -2.176000000
H    -6.751000000     2.411000000    -2.762000000
O    -1.719000000     4.091000000     2.555000000
H    -1.406000000     3.188000000     2.506000000
H    -2.194000000     4.225000000     1.735000000
O    -8.130000000     0.161000000     1.284000000
H    -7.917000000    -0.374000000     2.049000000
H    -7.287000000     0.317000000     0.859000000
O    -3.202000000     5.624000000     4.221000000
H    -2.562000000     5.082000000     3.759000000
H    -3.299000000     6.401000000     3.672000000
O    -5.590000000     7.588000000    -1.445000000
H    -6.173000000     7.325000000    -0.733000000
H    -5.009000000     6.837000000    -1.569000000
