215
-1465.71940
C    -4.434000000     2.475000000     0.154000000
H    -4.886000000     1.528000000    -0.129000000
C    -3.494000000     3.017000000    -0.668000000
C    -2.950000000     4.233000000    -0.393000000
H    -2.176000000     4.687000000    -1.006000000
C    -2.953000000     2.232000000    -1.882000000
O    -4.002000000     1.431000000    -2.466000000
H    -2.158000000     1.552000000    -1.542000000
O    -2.416000000     3.145000000    -2.860000000
C    -1.299000000     2.745000000    -3.507000000
C    -0.135000000     3.384000000    -3.167000000
H    -0.088000000     4.204000000    -2.454000000
C     1.096000000     2.789000000    -3.455000000
O     2.247000000     3.377000000    -2.897000000
C     1.173000000     1.821000000    -4.427000000
C     2.558000000     1.244000000    -4.952000000
H     2.341000000     0.854000000    -5.948000000
C     3.150000000     0.252000000    -3.962000000
C     2.843000000    -1.115000000    -4.176000000
H     2.288000000    -1.416000000    -5.061000000
H     3.252000000     2.084000000    -5.030000000
C     0.037000000     1.260000000    -4.940000000
H     0.107000000     0.615000000    -5.812000000
C    -1.240000000     1.612000000    -4.415000000
C    -2.430000000     0.851000000    -4.910000000
H    -2.302000000     0.351000000    -5.873000000
H    -3.239000000     1.575000000    -5.022000000
C    -2.913000000    -0.206000000    -3.931000000
C    -2.555000000    -1.532000000    -4.139000000
H    -1.965000000    -1.781000000    -5.017000000
C    -3.645000000     0.132000000    -2.803000000
C    -3.979000000    -0.828000000    -1.853000000
H    -4.363000000    -0.504000000    -0.889000000
C    -3.673000000    -2.222000000    -2.093000000
O    -3.878000000    -3.202000000    -1.143000000
C    -2.765000000    -3.328000000    -0.185000000
C    -3.266000000    -3.302000000     1.228000000
C    -2.597000000    -4.082000000     2.128000000
H    -1.765000000    -4.711000000     1.821000000
C    -4.374000000    -2.599000000     1.673000000
H    -4.841000000    -1.909000000     0.975000000
O    -2.034000000    -4.538000000    -0.469000000
H    -2.035000000    -2.508000000    -0.257000000
C    -2.870000000    -2.508000000    -3.208000000
C    -2.246000000    -3.860000000    -3.358000000
H    -2.133000000    -4.127000000    -4.411000000
H    -2.972000000    -4.619000000    -3.060000000
C    -0.932000000    -4.012000000    -2.597000000
C     0.195000000    -3.771000000    -3.253000000
H     0.132000000    -3.593000000    -4.323000000
C    -0.902000000    -4.387000000    -1.222000000
C     0.324000000    -4.482000000    -0.556000000
H     0.282000000    -4.692000000     0.510000000
C     1.410000000    -4.012000000    -1.171000000
O     2.577000000    -3.937000000    -0.483000000
C     3.072000000    -2.643000000    -0.217000000
C     3.341000000    -2.430000000     1.291000000
C     2.717000000    -3.290000000     2.189000000
H     2.095000000    -4.116000000     1.853000000
C     4.276000000    -1.478000000     1.806000000
H     4.920000000    -0.969000000     1.094000000
O     4.213000000    -2.424000000    -1.023000000
H     2.253000000    -1.972000000    -0.513000000
C     1.404000000    -3.722000000    -2.557000000
C     2.677000000    -3.467000000    -3.358000000
H     2.577000000    -3.616000000    -4.435000000
H     3.384000000    -4.102000000    -2.819000000
C     3.175000000    -2.036000000    -3.188000000
C     3.986000000    -1.617000000    -2.136000000
C     4.200000000    -0.282000000    -1.865000000
H     4.733000000    -0.009000000    -0.958000000
C     3.822000000     0.645000000    -2.820000000
O     4.032000000     1.988000000    -2.555000000
C     2.919000000     2.645000000    -1.907000000
H     2.211000000     1.948000000    -1.433000000
C     3.316000000     3.480000000    -0.693000000
C     2.380000000     4.355000000    -0.100000000
H     1.442000000     4.505000000    -0.629000000
C     4.534000000     3.259000000    -0.019000000
H     5.297000000     2.571000000    -0.375000000
C     4.855000000     3.944000000     1.172000000
O     6.013000000     3.701000000     1.780000000
C     3.901000000     4.719000000     1.776000000
H     4.147000000     5.142000000     2.747000000
C     2.715000000     5.070000000     1.072000000
O     1.821000000     5.921000000     1.613000000
C     0.699000000     6.394000000     0.924000000
C    -0.544000000     5.935000000     1.220000000
H    -0.742000000     5.037000000     1.799000000
C     0.853000000     7.512000000     0.117000000
H     1.861000000     7.829000000    -0.137000000
C    -0.202000000     8.242000000    -0.355000000
H    -0.057000000     9.127000000    -0.969000000
C    -1.494000000     7.787000000    -0.031000000
H    -2.406000000     8.321000000    -0.287000000
C    -1.652000000     6.636000000     0.692000000
O    -2.972000000     6.256000000     0.972000000
C    -3.436000000     4.993000000     0.698000000
C    -4.431000000     4.507000000     1.487000000
H    -4.899000000     5.073000000     2.288000000
C    -4.935000000     3.242000000     1.201000000
O    -5.933000000     2.783000000     2.050000000
C    -6.474000000     1.510000000     2.040000000
C    -5.749000000     0.424000000     2.577000000
H    -4.712000000     0.593000000     2.854000000
C    -7.754000000     1.319000000     1.522000000
H    -8.313000000     2.158000000     1.116000000
C    -8.512000000     0.200000000     1.744000000
H    -9.505000000    -0.016000000     1.359000000
C    -7.821000000    -0.884000000     2.357000000
H    -8.337000000    -1.799000000     2.636000000
C    -6.471000000    -0.770000000     2.749000000
O    -5.887000000    -1.895000000     3.381000000
C    -4.745000000    -2.574000000     2.988000000
C    -4.027000000    -3.364000000     3.934000000
H    -4.360000000    -3.478000000     4.963000000
C    -2.943000000    -4.080000000     3.496000000
O    -2.374000000    -4.957000000     4.386000000
C    -1.085000000    -5.364000000     4.378000000
C     0.012000000    -4.520000000     4.455000000
H    -0.060000000    -3.452000000     4.646000000
C    -0.862000000    -6.761000000     4.445000000
H    -1.616000000    -7.544000000     4.438000000
C     0.445000000    -7.220000000     4.348000000
H     0.679000000    -8.281000000     4.366000000
C     1.549000000    -6.331000000     4.289000000
H     2.556000000    -6.733000000     4.202000000
C     1.320000000    -5.002000000     4.297000000
O     2.390000000    -4.150000000     4.570000000
C     2.890000000    -3.245000000     3.591000000
C     3.751000000    -2.240000000     4.047000000
H     4.013000000    -2.292000000     5.101000000
C     4.504000000    -1.383000000     3.197000000
O     5.517000000    -0.609000000     3.772000000
C     6.250000000     0.321000000     3.099000000
C     7.533000000    -0.026000000     2.863000000
H     8.046000000    -0.899000000     3.258000000
C     8.368000000     0.909000000     2.167000000
H     9.420000000     0.702000000     1.991000000
C     7.815000000     2.159000000     1.801000000
H     8.363000000     2.971000000     1.329000000
C     6.495000000     2.441000000     2.058000000
C     5.768000000     1.533000000     2.685000000
H     4.729000000     1.635000000     2.989000000
C    -0.816000000    -0.608000000     2.431000000
H    -0.878000000    -1.527000000     3.008000000
C    -0.224000000    -0.683000000     1.140000000
H     0.095000000    -1.638000000     0.732000000
C    -0.185000000     0.484000000     0.290000000
H     0.268000000     0.555000000    -0.693000000
C    -0.880000000     1.608000000     0.651000000
H    -0.972000000     2.429000000    -0.055000000
C    -1.474000000     1.605000000     1.920000000
H    -1.991000000     2.523000000     2.186000000
C    -1.408000000     0.546000000     2.825000000
C    -2.200000000     0.636000000     4.119000000
O    -2.690000000     1.749000000     4.501000000
O    -2.162000000    -0.299000000     4.893000000
O    -2.178000000     1.359000000     7.191000000
H    -2.044000000     1.351000000     6.243000000
H    -2.703000000     0.578000000     7.365000000
O     1.492000000     0.258000000     5.019000000
H     0.879000000    -0.076000000     5.674000000
H     1.212000000    -0.148000000     4.199000000
O    -0.745000000    -1.832000000     6.317000000
H    -1.222000000    -1.183000000     5.799000000
H    -1.280000000    -2.623000000     6.262000000
O    -2.948000000     2.589000000     9.464000000
H    -3.862000000     2.836000000     9.317000000
H    -2.688000000     2.145000000     8.657000000
O     1.304000000     3.016000000     4.859000000
H     1.594000000     2.142000000     5.122000000
H     1.529000000     3.073000000     3.930000000
O     1.438000000     0.043000000     7.643000000
H     0.629000000     0.296000000     8.087000000
H     2.030000000     0.782000000     7.784000000
O    -4.414000000    -0.806000000     6.331000000
H    -3.901000000    -1.572000000     6.588000000
H    -3.931000000    -0.431000000     5.595000000
O    -1.925000000    -1.472000000     9.821000000
H    -1.949000000    -2.067000000     9.071000000
H    -1.398000000    -0.731000000     9.522000000
O     1.656000000     4.728000000     6.771000000
H     0.827000000     5.080000000     7.094000000
H     1.403000000     4.113000000     6.082000000
O     1.997000000    -2.529000000     7.558000000
H     2.141000000    -1.591000000     7.434000000
H     1.286000000    -2.744000000     6.954000000
O     1.876000000     2.105000000     2.383000000
H     2.533000000     2.397000000     1.750000000
H     1.263000000     1.582000000     1.867000000
O    -5.041000000     2.741000000     5.553000000
H    -5.248000000     1.914000000     5.989000000
H    -4.244000000     2.556000000     5.056000000
O    -1.248000000     3.856000000     4.831000000
H    -0.422000000     3.374000000     4.818000000
H    -1.922000000     3.179000000     4.760000000
O    -6.083000000     0.702000000     8.035000000
H    -6.460000000     0.130000000     8.704000000
H    -5.546000000     0.121000000     7.497000000
O    -3.682000000     5.540000000     5.513000000
H    -2.859000000     5.111000000     5.279000000
H    -4.323000000     4.830000000     5.538000000
O     4.262000000     0.740000000     5.790000000
H     3.434000000     0.387000000     5.465000000
H     4.924000000     0.379000000     5.199000000
O    -0.728000000     4.893000000     8.246000000
H    -0.489000000     5.271000000     9.092000000
H    -0.836000000     3.958000000     8.423000000
O    -7.665000000     3.316000000     5.127000000
H    -6.763000000     3.019000000     5.246000000
H    -7.591000000     4.089000000     4.567000000
O    -2.654000000    -3.229000000     7.755000000
H    -3.607000000    -3.192000000     7.669000000
H    -2.488000000    -4.033000000     8.246000000
