215
-1453.20086
C    -4.241000000     1.826000000     0.759000000
H    -4.622000000     0.865000000     0.422000000
C    -3.417000000     2.663000000     0.022000000
C    -2.937000000     3.842000000     0.422000000
H    -2.345000000     4.452000000    -0.256000000
C    -3.102000000     2.229000000    -1.442000000
O    -4.146000000     1.507000000    -2.077000000
H    -2.345000000     1.463000000    -1.220000000
O    -2.495000000     3.279000000    -2.218000000
C    -1.316000000     3.185000000    -2.883000000
C    -0.219000000     3.874000000    -2.423000000
H    -0.414000000     4.612000000    -1.649000000
C     1.035000000     3.631000000    -2.959000000
O     2.169000000     4.174000000    -2.457000000
C     1.106000000     2.752000000    -4.083000000
C     2.401000000     2.330000000    -4.632000000
H     2.327000000     2.073000000    -5.691000000
C     2.966000000     1.137000000    -3.767000000
C     2.965000000    -0.174000000    -4.184000000
H     2.570000000    -0.416000000    -5.167000000
H     3.084000000     3.175000000    -4.739000000
C    -0.049000000     2.144000000    -4.614000000
H     0.020000000     1.602000000    -5.554000000
C    -1.272000000     2.357000000    -4.029000000
C    -2.498000000     1.571000000    -4.511000000
H    -2.505000000     1.386000000    -5.587000000
H    -3.362000000     2.238000000    -4.457000000
C    -2.829000000     0.295000000    -3.865000000
C    -2.228000000    -0.854000000    -4.367000000
H    -1.542000000    -0.881000000    -5.210000000
C    -3.710000000     0.331000000    -2.749000000
C    -3.865000000    -0.790000000    -2.033000000
H    -4.515000000    -0.895000000    -1.167000000
C    -3.418000000    -1.957000000    -2.614000000
O    -3.643000000    -3.079000000    -1.839000000
C    -2.583000000    -3.539000000    -0.917000000
C    -3.107000000    -3.978000000     0.467000000
C    -2.380000000    -4.936000000     1.190000000
H    -1.484000000    -5.375000000     0.761000000
C    -4.172000000    -3.289000000     1.054000000
H    -4.794000000    -2.646000000     0.437000000
O    -1.749000000    -4.584000000    -1.542000000
H    -1.995000000    -2.637000000    -0.692000000
C    -2.578000000    -2.017000000    -3.737000000
C    -1.852000000    -3.279000000    -4.101000000
H    -1.675000000    -3.356000000    -5.176000000
H    -2.524000000    -4.128000000    -3.967000000
C    -0.569000000    -3.445000000    -3.297000000
C     0.639000000    -3.062000000    -3.819000000
H     0.659000000    -2.669000000    -4.833000000
C    -0.573000000    -4.059000000    -2.059000000
C     0.593000000    -4.220000000    -1.268000000
H     0.669000000    -4.823000000    -0.366000000
C     1.798000000    -3.664000000    -1.738000000
O     2.819000000    -3.730000000    -0.956000000
C     3.243000000    -2.488000000    -0.331000000
C     3.577000000    -2.696000000     1.146000000
C     2.961000000    -3.861000000     1.804000000
H     2.508000000    -4.653000000     1.214000000
C     4.187000000    -1.666000000     1.894000000
H     4.491000000    -0.777000000     1.348000000
O     4.246000000    -1.699000000    -1.061000000
H     2.286000000    -1.946000000    -0.350000000
C     1.812000000    -3.070000000    -3.027000000
C     3.132000000    -2.658000000    -3.596000000
H     3.212000000    -2.742000000    -4.682000000
H     3.972000000    -3.271000000    -3.262000000
C     3.273000000    -1.176000000    -3.237000000
C     3.738000000    -0.819000000    -1.969000000
C     3.935000000     0.504000000    -1.644000000
H     4.342000000     0.771000000    -0.672000000
C     3.681000000     1.495000000    -2.587000000
O     3.911000000     2.771000000    -2.154000000
C     2.763000000     3.309000000    -1.574000000
H     2.093000000     2.473000000    -1.325000000
C     3.034000000     4.091000000    -0.254000000
C     2.306000000     5.273000000     0.081000000
H     1.568000000     5.638000000    -0.628000000
C     3.875000000     3.544000000     0.706000000
H     4.252000000     2.537000000     0.544000000
C     4.155000000     4.235000000     1.876000000
O     5.135000000     3.849000000     2.771000000
C     3.566000000     5.418000000     2.171000000
H     3.675000000     5.872000000     3.152000000
C     2.571000000     5.911000000     1.320000000
O     1.835000000     6.928000000     1.797000000
C     0.485000000     7.084000000     1.502000000
C    -0.444000000     6.114000000     1.898000000
H    -0.233000000     5.236000000     2.503000000
C     0.042000000     8.247000000     0.880000000
H     0.705000000     9.103000000     0.778000000
C    -1.340000000     8.511000000     0.632000000
H    -1.785000000     9.444000000     0.295000000
C    -2.200000000     7.479000000     1.061000000
H    -3.258000000     7.590000000     0.840000000
C    -1.760000000     6.340000000     1.651000000
O    -2.778000000     5.497000000     2.192000000
C    -3.180000000     4.291000000     1.729000000
C    -3.879000000     3.469000000     2.577000000
H    -4.011000000     3.710000000     3.629000000
C    -4.404000000     2.242000000     2.102000000
O    -5.136000000     1.509000000     2.988000000
C    -5.848000000     0.405000000     2.678000000
C    -5.356000000    -0.879000000     2.990000000
H    -4.432000000    -1.005000000     3.548000000
C    -6.995000000     0.594000000     1.959000000
H    -7.226000000     1.605000000     1.632000000
C    -7.786000000    -0.511000000     1.593000000
H    -8.676000000    -0.348000000     0.990000000
C    -7.317000000    -1.765000000     1.954000000
H    -7.942000000    -2.593000000     1.628000000
C    -6.143000000    -1.920000000     2.577000000
O    -5.738000000    -3.193000000     2.839000000
C    -4.571000000    -3.707000000     2.329000000
C    -3.926000000    -4.769000000     2.945000000
H    -4.263000000    -5.145000000     3.908000000
C    -2.802000000    -5.411000000     2.395000000
O    -2.087000000    -6.310000000     3.128000000
C    -0.735000000    -6.479000000     2.982000000
C     0.165000000    -5.629000000     3.557000000
H    -0.204000000    -4.690000000     3.962000000
C    -0.319000000    -7.651000000     2.345000000
H    -0.975000000    -8.394000000     1.900000000
C     1.067000000    -7.958000000     2.252000000
H     1.481000000    -8.856000000     1.802000000
C     1.988000000    -6.981000000     2.678000000
H     3.047000000    -7.135000000     2.487000000
C     1.553000000    -5.807000000     3.362000000
O     2.477000000    -4.979000000     3.926000000
C     3.077000000    -3.970000000     3.208000000
C     3.671000000    -2.962000000     3.894000000
H     3.730000000    -3.045000000     4.976000000
C     4.189000000    -1.793000000     3.284000000
O     4.574000000    -0.746000000     4.076000000
C     5.355000000     0.239000000     3.682000000
C     6.632000000    -0.007000000     3.213000000
H     7.014000000    -1.024000000     3.211000000
C     7.395000000     1.021000000     2.740000000
H     8.417000000     0.874000000     2.400000000
C     6.853000000     2.351000000     2.653000000
H     7.489000000     3.183000000     2.360000000
C     5.549000000     2.557000000     3.003000000
C     4.851000000     1.556000000     3.633000000
H     3.847000000     1.802000000     3.969000000
C     0.537000000    -1.351000000     2.623000000
H     0.472000000    -2.067000000     3.438000000
C     0.190000000    -1.734000000     1.314000000
H     0.221000000    -2.780000000     1.021000000
C     0.084000000    -0.736000000     0.380000000
H     0.035000000    -1.035000000    -0.653000000
C     0.409000000     0.585000000     0.705000000
H     0.199000000     1.408000000     0.026000000
C     0.812000000     0.945000000     1.993000000
H     1.104000000     1.976000000     2.174000000
C     0.902000000    -0.027000000     2.985000000
C     1.400000000     0.218000000     4.369000000
O     1.507000000     1.389000000     4.733000000
O     1.783000000    -0.690000000     5.068000000
O     3.353000000    -2.693000000     9.371000000
H     4.162000000    -2.899000000     9.838000000
H     3.639000000    -2.198000000     8.603000000
O     0.192000000     1.859000000     7.393000000
H     0.234000000     0.907000000     7.485000000
H    -0.006000000     2.002000000     6.467000000
O     2.499000000     0.587000000     9.182000000
H     2.203000000     0.497000000    10.088000000
H     2.153000000    -0.187000000     8.739000000
O     4.102000000     4.586000000     5.758000000
H     4.208000000     5.253000000     6.436000000
H     3.671000000     3.857000000     6.205000000
O     0.368000000    -5.227000000     6.848000000
H     0.430000000    -4.284000000     6.699000000
H    -0.460000000    -5.480000000     6.439000000
O     5.504000000    -2.893000000     7.531000000
H     6.198000000    -2.558000000     8.099000000
H     4.899000000    -2.158000000     7.434000000
O     3.649000000    -1.019000000     7.206000000
H     3.049000000    -1.028000000     6.461000000
H     4.063000000    -0.157000000     7.171000000
O    -1.952000000     0.955000000     4.220000000
H    -2.045000000     0.705000000     3.300000000
H    -1.706000000     1.879000000     4.193000000
O    -1.289000000     3.494000000     5.095000000
H    -0.382000000     3.734000000     4.904000000
H    -1.672000000     4.286000000     5.473000000
O     0.385000000    -2.681000000     5.996000000
H    -0.361000000    -2.594000000     5.402000000
H     1.064000000    -2.127000000     5.612000000
O     5.761000000     1.559000000     7.413000000
H     4.848000000     1.768000000     7.212000000
H     5.844000000     1.728000000     8.352000000
O     1.556000000     3.871000000     4.096000000
H     2.455000000     4.186000000     4.196000000
H     1.631000000     2.917000000     4.138000000
O    -0.955000000    -1.107000000     7.803000000
H    -0.755000000    -1.664000000     7.051000000
H    -0.396000000    -1.440000000     8.504000000
O    -1.793000000    -1.891000000     4.515000000
H    -1.524000000    -1.079000000     4.086000000
H    -2.666000000    -2.069000000     4.167000000
O    -4.093000000     0.388000000     6.269000000
H    -3.259000000     0.621000000     5.861000000
H    -4.127000000    -0.567000000     6.218000000
O     3.136000000     2.073000000     6.770000000
H     2.654000000     2.070000000     5.943000000
H     2.480000000     1.848000000     7.430000000
O    -2.415000000     3.100000000     7.898000000
H    -2.660000000     3.286000000     6.992000000
H    -1.482000000     2.892000000     7.856000000
O     0.635000000     4.029000000     9.133000000
H     0.474000000     3.285000000     8.552000000
H     1.532000000     3.901000000     9.443000000
O     0.574000000     6.088000000     5.493000000
H     0.843000000     6.816000000     4.933000000
H     0.798000000     5.304000000     4.990000000
