215
-1457.53938
C    -4.704000000     0.902000000     1.221000000
H    -4.836000000    -0.108000000     0.842000000
C    -3.997000000     1.863000000     0.459000000
C    -3.588000000     3.103000000     0.968000000
H    -3.002000000     3.774000000     0.346000000
C    -3.559000000     1.511000000    -0.970000000
O    -4.601000000     0.664000000    -1.598000000
H    -2.609000000     0.959000000    -0.927000000
O    -3.334000000     2.674000000    -1.825000000
C    -2.273000000     2.740000000    -2.681000000
C    -1.201000000     3.539000000    -2.308000000
H    -1.256000000     4.237000000    -1.476000000
C    -0.067000000     3.541000000    -3.033000000
O     0.988000000     4.261000000    -2.541000000
C     0.073000000     2.789000000    -4.219000000
C     1.455000000     2.693000000    -4.817000000
H     1.290000000     2.523000000    -5.883000000
C     2.362000000     1.568000000    -4.230000000
C     2.286000000     0.230000000    -4.561000000
H     1.631000000    -0.218000000    -5.304000000
H     1.991000000     3.644000000    -4.811000000
C    -1.001000000     1.946000000    -4.616000000
H    -0.914000000     1.308000000    -5.491000000
C    -2.225000000     1.908000000    -3.814000000
C    -3.422000000     1.005000000    -4.278000000
H    -3.362000000     0.752000000    -5.339000000
H    -4.251000000     1.672000000    -4.035000000
C    -3.407000000    -0.274000000    -3.469000000
C    -2.705000000    -1.309000000    -4.018000000
H    -2.115000000    -1.204000000    -4.925000000
C    -4.052000000    -0.472000000    -2.185000000
C    -4.066000000    -1.689000000    -1.486000000
H    -4.562000000    -1.836000000    -0.530000000
C    -3.412000000    -2.726000000    -2.146000000
O    -3.338000000    -3.845000000    -1.350000000
C    -2.171000000    -3.821000000    -0.526000000
C    -2.496000000    -4.276000000     0.895000000
C    -1.410000000    -4.534000000     1.739000000
H    -0.411000000    -4.589000000     1.313000000
C    -3.772000000    -4.091000000     1.450000000
H    -4.618000000    -3.775000000     0.845000000
O    -1.238000000    -4.706000000    -1.168000000
H    -1.767000000    -2.809000000    -0.374000000
C    -2.670000000    -2.523000000    -3.313000000
C    -1.891000000    -3.684000000    -3.827000000
H    -1.863000000    -3.642000000    -4.918000000
H    -2.344000000    -4.660000000    -3.640000000
C    -0.485000000    -3.706000000    -3.202000000
C     0.533000000    -3.023000000    -3.890000000
H     0.419000000    -2.608000000    -4.888000000
C    -0.241000000    -4.212000000    -1.950000000
C     1.063000000    -4.105000000    -1.414000000
H     1.171000000    -4.440000000    -0.386000000
C     2.022000000    -3.368000000    -2.046000000
O     3.175000000    -3.109000000    -1.315000000
C     3.455000000    -1.809000000    -0.865000000
C     4.145000000    -1.803000000     0.514000000
C     3.867000000    -2.883000000     1.360000000
H     3.140000000    -3.531000000     0.877000000
C     5.040000000    -0.785000000     0.932000000
H     5.416000000    -0.034000000     0.242000000
O     4.285000000    -1.192000000    -1.846000000
H     2.496000000    -1.275000000    -0.805000000
C     1.817000000    -2.884000000    -3.325000000
C     2.907000000    -2.170000000    -4.133000000
H     2.732000000    -2.353000000    -5.196000000
H     3.904000000    -2.590000000    -3.981000000
C     2.956000000    -0.690000000    -3.776000000
C     3.673000000    -0.320000000    -2.655000000
C     3.756000000     1.031000000    -2.344000000
H     4.242000000     1.300000000    -1.409000000
C     3.139000000     1.973000000    -3.128000000
O     3.157000000     3.271000000    -2.652000000
C     1.972000000     3.543000000    -1.771000000
H     1.556000000     2.577000000    -1.449000000
C     2.299000000     4.208000000    -0.410000000
C     1.361000000     4.914000000     0.384000000
H     0.320000000     4.923000000     0.068000000
C     3.663000000     4.174000000     0.043000000
H     4.480000000     3.601000000    -0.389000000
C     4.055000000     4.792000000     1.256000000
O     5.376000000     4.866000000     1.732000000
C     3.102000000     5.505000000     1.944000000
H     3.446000000     6.086000000     2.796000000
C     1.792000000     5.645000000     1.511000000
O     0.932000000     6.432000000     2.203000000
C    -0.430000000     6.508000000     2.044000000
C    -1.254000000     5.547000000     2.606000000
H    -0.777000000     4.709000000     3.108000000
C    -0.939000000     7.429000000     1.165000000
H    -0.249000000     8.152000000     0.737000000
C    -2.319000000     7.371000000     0.752000000
H    -2.731000000     8.072000000     0.030000000
C    -3.111000000     6.335000000     1.272000000
H    -4.179000000     6.224000000     1.100000000
C    -2.560000000     5.468000000     2.189000000
O    -3.334000000     4.484000000     2.791000000
C    -3.881000000     3.366000000     2.234000000
C    -4.667000000     2.561000000     3.019000000
H    -5.083000000     2.975000000     3.934000000
C    -5.015000000     1.258000000     2.551000000
O    -5.653000000     0.460000000     3.448000000
C    -6.178000000    -0.717000000     3.140000000
C    -5.447000000    -1.849000000     3.361000000
H    -4.381000000    -1.828000000     3.573000000
C    -7.612000000    -0.733000000     2.918000000
H    -8.236000000     0.156000000     2.967000000
C    -8.219000000    -2.020000000     3.008000000
H    -9.286000000    -2.200000000     3.118000000
C    -7.462000000    -3.180000000     3.150000000
H    -7.984000000    -4.131000000     3.206000000
C    -6.036000000    -3.103000000     3.237000000
O    -5.160000000    -4.250000000     3.330000000
C    -3.920000000    -4.221000000     2.833000000
C    -2.849000000    -4.604000000     3.611000000
H    -3.169000000    -4.754000000     4.639000000
C    -1.602000000    -4.841000000     3.039000000
O    -0.560000000    -5.233000000     3.936000000
C     0.680000000    -5.493000000     3.558000000
C     1.631000000    -4.472000000     3.615000000
H     1.302000000    -3.490000000     3.943000000
C     1.073000000    -6.744000000     3.136000000
H     0.306000000    -7.469000000     2.878000000
C     2.406000000    -7.027000000     2.805000000
H     2.613000000    -8.053000000     2.511000000
C     3.382000000    -6.121000000     3.088000000
H     4.439000000    -6.353000000     2.986000000
C     3.021000000    -4.837000000     3.436000000
O     4.031000000    -3.951000000     3.524000000
C     4.393000000    -2.899000000     2.628000000
C     5.247000000    -1.850000000     3.026000000
H     5.615000000    -1.839000000     4.049000000
C     5.537000000    -0.789000000     2.217000000
O     6.293000000     0.259000000     2.683000000
C     6.690000000     1.448000000     2.080000000
C     7.898000000     1.498000000     1.372000000
H     8.572000000     0.649000000     1.294000000
C     8.246000000     2.765000000     0.903000000
H     9.095000000     2.965000000     0.255000000
C     7.421000000     3.819000000     0.890000000
H     7.725000000     4.793000000     0.513000000
C     6.193000000     3.759000000     1.545000000
C     5.877000000     2.587000000     2.209000000
H     4.909000000     2.432000000     2.680000000
C     0.172000000    -0.998000000     2.376000000
H     0.301000000    -1.706000000     3.191000000
C     0.158000000    -1.604000000     1.095000000
H     0.283000000    -2.673000000     0.945000000
C    -0.130000000    -0.812000000    -0.058000000
H    -0.220000000    -1.271000000    -1.032000000
C    -0.338000000     0.493000000     0.147000000
H    -0.472000000     1.086000000    -0.754000000
C    -0.318000000     1.121000000     1.362000000
H    -0.466000000     2.198000000     1.384000000
C    -0.078000000     0.360000000     2.548000000
C    -0.023000000     1.026000000     3.922000000
O    -0.463000000     2.161000000     4.140000000
O     0.435000000     0.408000000     4.808000000
O    -0.564000000    -1.409000000     8.719000000
H    -0.881000000    -0.563000000     8.404000000
H     0.156000000    -1.630000000     8.128000000
O     3.330000000    -1.542000000     8.145000000
H     3.080000000    -0.630000000     8.292000000
H     2.915000000    -2.022000000     8.862000000
O     5.701000000     0.725000000     5.331000000
H     5.918000000     0.571000000     4.411000000
H     4.777000000     0.486000000     5.402000000
O     1.929000000    -4.719000000     7.042000000
H     1.500000000    -3.884000000     6.855000000
H     1.988000000    -4.750000000     7.997000000
O     0.913000000     1.853000000     6.959000000
H     0.271000000     2.562000000     6.941000000
H     0.655000000     1.277000000     6.239000000
O    -2.190000000    -1.364000000     5.348000000
H    -2.357000000    -1.240000000     4.414000000
H    -1.314000000    -1.002000000     5.485000000
O    -2.751000000     2.879000000     5.540000000
H    -2.006000000     2.607000000     5.003000000
H    -3.280000000     3.424000000     4.958000000
O     1.518000000    -2.081000000     6.238000000
H     2.315000000    -1.869000000     6.724000000
H     1.448000000    -1.389000000     5.581000000
O    -5.414000000     0.353000000     6.733000000
H    -5.541000000     0.517000000     5.798000000
H    -5.757000000    -0.530000000     6.871000000
O     0.183000000     3.338000000     9.850000000
H    -0.584000000     3.065000000    10.353000000
H    -0.178000000     3.704000000     9.043000000
O     1.817000000     3.784000000     4.522000000
H     2.480000000     3.130000000     4.302000000
H     0.996000000     3.293000000     4.552000000
O    -2.205000000    -3.723000000     6.732000000
H    -2.133000000    -2.950000000     6.172000000
H    -2.076000000    -3.388000000     7.619000000
O     2.336000000     0.740000000     9.072000000
H     1.901000000     0.959000000     9.896000000
H     1.904000000     1.290000000     8.419000000
O    -0.904000000     4.052000000     7.215000000
H    -1.637000000     3.467000000     7.025000000
H    -0.992000000     4.761000000     6.579000000
O     3.017000000     1.205000000     3.660000000
H     2.443000000     0.800000000     4.310000000
H     2.961000000     0.628000000     2.898000000
O     4.174000000     4.710000000     5.500000000
H     3.263000000     4.504000000     5.288000000
H     4.419000000     4.060000000     6.159000000
O    -2.308000000     0.707000000     7.572000000
H    -2.402000000     1.438000000     6.961000000
H    -2.912000000     0.041000000     7.243000000
O     0.080000000     6.056000000     5.442000000
H     0.528000000     5.500000000     4.805000000
H     0.786000000     6.511000000     5.901000000
O     3.647000000     3.047000000     7.560000000
H     2.764000000     2.774000000     7.311000000
H     3.510000000     3.736000000     8.211000000
