215
-1442.42296
C    -4.870000000     2.350000000     0.198000000
H    -5.137000000     1.372000000    -0.193000000
C    -3.843000000     3.063000000    -0.424000000
C    -3.314000000     4.178000000     0.268000000
H    -2.471000000     4.750000000    -0.112000000
C    -3.076000000     2.487000000    -1.603000000
O    -4.035000000     1.808000000    -2.518000000
H    -2.318000000     1.758000000    -1.279000000
O    -2.415000000     3.588000000    -2.391000000
C    -1.241000000     3.276000000    -3.067000000
C    -0.090000000     3.783000000    -2.488000000
H    -0.183000000     4.477000000    -1.656000000
C     1.117000000     3.426000000    -3.005000000
O     2.255000000     3.871000000    -2.359000000
C     1.290000000     2.567000000    -4.098000000
C     2.641000000     2.025000000    -4.589000000
H     2.481000000     1.633000000    -5.596000000
C     3.113000000     0.831000000    -3.714000000
C     2.907000000    -0.523000000    -4.091000000
H     2.294000000    -0.807000000    -4.943000000
H     3.421000000     2.787000000    -4.640000000
C     0.149000000     2.083000000    -4.681000000
H     0.072000000     1.346000000    -5.476000000
C    -1.128000000     2.386000000    -4.168000000
C    -2.364000000     1.856000000    -4.819000000
H    -2.071000000     1.627000000    -5.845000000
H    -3.142000000     2.604000000    -4.984000000
C    -2.724000000     0.529000000    -4.155000000
C    -2.123000000    -0.692000000    -4.482000000
H    -1.333000000    -0.642000000    -5.227000000
C    -3.631000000     0.608000000    -3.111000000
C    -3.847000000    -0.551000000    -2.304000000
H    -4.448000000    -0.413000000    -1.408000000
C    -3.197000000    -1.785000000    -2.643000000
O    -3.512000000    -2.851000000    -1.808000000
C    -2.550000000    -2.958000000    -0.798000000
C    -3.204000000    -3.355000000     0.540000000
C    -2.571000000    -4.281000000     1.350000000
H    -1.595000000    -4.706000000     1.131000000
C    -4.304000000    -2.632000000     1.023000000
H    -4.724000000    -1.859000000     0.386000000
O    -1.680000000    -4.094000000    -1.182000000
H    -1.979000000    -2.025000000    -0.685000000
C    -2.384000000    -1.858000000    -3.716000000
C    -1.775000000    -3.242000000    -4.047000000
H    -1.558000000    -3.215000000    -5.117000000
H    -2.545000000    -4.015000000    -3.997000000
C    -0.491000000    -3.585000000    -3.225000000
C     0.772000000    -3.369000000    -3.883000000
H     0.767000000    -3.016000000    -4.911000000
C    -0.499000000    -4.012000000    -1.858000000
C     0.705000000    -4.468000000    -1.286000000
H     0.762000000    -4.835000000    -0.264000000
C     1.937000000    -4.065000000    -1.909000000
O     3.065000000    -4.129000000    -1.104000000
C     3.523000000    -2.848000000    -0.521000000
C     3.684000000    -2.769000000     0.976000000
C     2.746000000    -3.412000000     1.816000000
H     1.861000000    -3.940000000     1.469000000
C     4.813000000    -2.061000000     1.469000000
H     5.559000000    -1.678000000     0.779000000
O     4.673000000    -2.295000000    -1.299000000
H     2.690000000    -2.137000000    -0.623000000
C     1.948000000    -3.492000000    -3.189000000
C     3.271000000    -3.060000000    -3.881000000
H     3.127000000    -3.045000000    -4.963000000
H     4.078000000    -3.741000000    -3.603000000
C     3.572000000    -1.624000000    -3.447000000
C     4.319000000    -1.346000000    -2.277000000
C     4.484000000     0.012000000    -1.894000000
H     5.072000000     0.171000000    -0.993000000
C     3.858000000     1.017000000    -2.592000000
O     3.935000000     2.296000000    -2.031000000
C     2.812000000     2.874000000    -1.462000000
H     2.088000000     2.049000000    -1.396000000
C     2.993000000     3.400000000    -0.103000000
C     1.901000000     3.797000000     0.680000000
H     0.898000000     3.892000000     0.271000000
C     4.270000000     3.307000000     0.508000000
H     5.136000000     2.990000000    -0.069000000
C     4.386000000     3.611000000     1.875000000
O     5.555000000     3.542000000     2.571000000
C     3.289000000     4.043000000     2.576000000
H     3.468000000     4.343000000     3.606000000
C     2.059000000     4.073000000     2.002000000
O     1.023000000     4.274000000     2.741000000
C     0.134000000     5.280000000     2.475000000
C    -1.183000000     4.904000000     2.430000000
H    -1.404000000     3.854000000     2.254000000
C     0.536000000     6.561000000     2.770000000
H     1.593000000     6.731000000     2.959000000
C    -0.397000000     7.590000000     2.803000000
H     0.025000000     8.584000000     2.928000000
C    -1.683000000     7.274000000     2.529000000
H    -2.453000000     8.032000000     2.413000000
C    -2.140000000     5.963000000     2.380000000
O    -3.473000000     5.779000000     2.009000000
C    -3.913000000     4.651000000     1.413000000
C    -5.164000000     4.088000000     1.823000000
H    -5.741000000     4.623000000     2.574000000
C    -5.541000000     2.867000000     1.344000000
O    -6.706000000     2.306000000     1.764000000
C    -7.044000000     0.974000000     1.621000000
C    -6.181000000     0.030000000     2.137000000
H    -5.284000000     0.393000000     2.633000000
C    -8.196000000     0.602000000     0.951000000
H    -8.859000000     1.327000000     0.486000000
C    -8.569000000    -0.779000000     0.866000000
H    -9.400000000    -1.049000000     0.220000000
C    -7.764000000    -1.730000000     1.489000000
H    -7.870000000    -2.801000000     1.339000000
C    -6.664000000    -1.296000000     2.205000000
O    -5.963000000    -2.264000000     2.933000000
C    -4.822000000    -2.868000000     2.333000000
C    -4.239000000    -3.937000000     2.988000000
H    -4.633000000    -4.281000000     3.940000000
C    -3.105000000    -4.567000000     2.602000000
O    -2.449000000    -5.397000000     3.496000000
C    -1.139000000    -5.617000000     3.433000000
C    -0.251000000    -4.672000000     3.971000000
H    -0.657000000    -3.756000000     4.395000000
C    -0.634000000    -6.768000000     2.876000000
H    -1.408000000    -7.398000000     2.445000000
C     0.794000000    -6.952000000     2.733000000
H     1.171000000    -7.885000000     2.323000000
C     1.620000000    -5.921000000     3.211000000
H     2.685000000    -5.961000000     2.996000000
C     1.157000000    -4.808000000     3.822000000
O     2.001000000    -3.773000000     4.117000000
C     2.819000000    -3.126000000     3.184000000
C     3.930000000    -2.547000000     3.783000000
H     4.006000000    -2.482000000     4.866000000
C     4.846000000    -1.918000000     2.907000000
O     5.901000000    -1.160000000     3.552000000
C     6.519000000    -0.029000000     3.136000000
C     7.888000000     0.072000000     3.044000000
H     8.448000000    -0.835000000     3.255000000
C     8.476000000     1.268000000     2.681000000
H     9.555000000     1.400000000     2.655000000
C     7.662000000     2.359000000     2.536000000
H     8.146000000     3.291000000     2.255000000
C     6.270000000     2.362000000     2.689000000
C     5.711000000     1.100000000     2.907000000
H     4.638000000     0.987000000     3.036000000
C    -0.716000000     0.391000000     1.271000000
H    -1.752000000     0.674000000     1.440000000
C    -0.303000000     0.036000000    -0.016000000
H    -1.084000000    -0.036000000    -0.768000000
C     1.013000000    -0.075000000    -0.301000000
H     1.254000000    -0.407000000    -1.324000000
C     1.995000000     0.147000000     0.606000000
H     3.039000000    -0.024000000     0.358000000
C     1.615000000     0.537000000     1.906000000
H     2.301000000     0.717000000     2.730000000
C     0.265000000     0.673000000     2.294000000
C    -0.125000000     0.898000000     3.715000000
O     0.716000000     1.127000000     4.569000000
O    -1.315000000     0.890000000     4.067000000
O    -1.996000000     0.497000000     8.505000000
H    -1.206000000     0.075000000     8.843000000
H    -1.673000000     1.137000000     7.871000000
O     3.480000000     4.952000000     6.048000000
H     3.191000000     5.865000000     6.043000000
H     4.403000000     4.992000000     5.796000000
O    -2.419000000    -3.914000000     6.960000000
H    -3.020000000    -3.580000000     7.627000000
H    -2.062000000    -3.128000000     6.546000000
O     1.228000000    -0.959000000     5.977000000
H     2.173000000    -1.106000000     6.022000000
H     1.139000000    -0.106000000     5.554000000
O    -3.869000000     1.508000000     4.507000000
H    -3.606000000     1.996000000     5.287000000
H    -3.054000000     1.367000000     4.025000000
O    -1.271000000     5.813000000     6.737000000
H    -2.042000000     5.857000000     6.172000000
H    -0.727000000     5.129000000     6.346000000
O    -1.387000000     2.219000000     6.372000000
H    -1.302000000     1.608000000     5.640000000
H    -0.877000000     2.984000000     6.106000000
O     0.831000000    -2.924000000     7.987000000
H     0.275000000    -2.529000000     8.659000000
H     0.857000000    -2.273000000     7.286000000
O    -4.509000000    -1.582000000     6.684000000
H    -3.713000000    -1.099000000     6.461000000
H    -5.161000000    -1.273000000     6.055000000
O     4.288000000    -0.611000000     6.473000000
H     4.967000000    -0.769000000     5.816000000
H     3.842000000     0.180000000     6.171000000
O    -3.598000000     5.108000000     5.319000000
H    -4.387000000     5.617000000     5.505000000
H    -3.782000000     4.240000000     5.678000000
O     0.437000000     4.273000000     5.471000000
H     1.267000000     4.716000000     5.645000000
H     0.472000000     4.054000000     4.540000000
O    -1.481000000    -1.485000000     5.683000000
H    -1.782000000    -0.778000000     5.112000000
H    -0.544000000    -1.559000000     5.499000000
O     1.523000000     2.042000000     8.368000000
H     0.727000000     2.131000000     7.845000000
H     1.490000000     1.146000000     8.704000000
O    -3.867000000     3.119000000     7.198000000
H    -4.485000000     2.704000000     7.800000000
H    -3.055000000     2.624000000     7.309000000
O    -6.426000000     2.165000000     5.229000000
H    -5.649000000     1.784000000     4.819000000
H    -6.355000000     1.917000000     6.151000000
O     3.114000000     1.529000000     5.638000000
H     2.356000000     1.469000000     5.057000000
H     3.091000000     2.426000000     5.971000000
O     0.610000000    -0.188000000     9.959000000
H     1.444000000    -0.628000000    10.124000000
H    -0.026000000    -0.679000000    10.478000000
O     1.880000000     5.283000000     9.057000000
H     2.041000000     4.741000000     8.284000000
H     2.720000000     5.300000000     9.516000000
