215
-1470.62875
C    -4.316000000     2.079000000     0.275000000
H    -4.745000000     1.114000000     0.017000000
C    -3.452000000     2.727000000    -0.567000000
C    -2.954000000     3.942000000    -0.169000000
H    -2.197000000     4.406000000    -0.797000000
C    -2.966000000     2.027000000    -1.842000000
O    -4.050000000     1.280000000    -2.451000000
H    -2.198000000     1.282000000    -1.585000000
O    -2.467000000     2.983000000    -2.796000000
C    -1.197000000     2.830000000    -3.282000000
C    -0.090000000     3.403000000    -2.634000000
H    -0.259000000     4.040000000    -1.770000000
C     1.166000000     3.078000000    -3.097000000
O     2.246000000     3.628000000    -2.399000000
C     1.372000000     2.227000000    -4.188000000
C     2.737000000     1.670000000    -4.595000000
H     2.798000000     1.237000000    -5.596000000
C     3.222000000     0.613000000    -3.530000000
C     3.001000000    -0.702000000    -3.791000000
H     2.489000000    -0.860000000    -4.737000000
H     3.484000000     2.455000000    -4.732000000
C     0.277000000     1.672000000    -4.808000000
H     0.357000000     1.030000000    -5.682000000
C    -1.011000000     1.901000000    -4.294000000
C    -2.302000000     1.236000000    -4.835000000
H    -2.091000000     0.840000000    -5.830000000
H    -3.159000000     1.898000000    -4.976000000
C    -2.707000000     0.016000000    -4.028000000
C    -2.173000000    -1.253000000    -4.390000000
H    -1.379000000    -1.343000000    -5.127000000
C    -3.628000000     0.085000000    -3.004000000
C    -4.071000000    -1.082000000    -2.331000000
H    -4.704000000    -0.964000000    -1.456000000
C    -3.503000000    -2.322000000    -2.625000000
O    -3.665000000    -3.348000000    -1.754000000
C    -2.682000000    -3.491000000    -0.719000000
C    -3.248000000    -3.557000000     0.728000000
C    -2.480000000    -3.792000000     1.857000000
H    -1.450000000    -4.083000000     1.669000000
C    -4.564000000    -3.166000000     0.862000000
H    -5.087000000    -2.888000000    -0.050000000
O    -1.860000000    -4.543000000    -1.119000000
H    -2.106000000    -2.555000000    -0.680000000
C    -2.458000000    -2.395000000    -3.578000000
C    -1.681000000    -3.676000000    -3.837000000
H    -1.256000000    -3.587000000    -4.839000000
H    -2.250000000    -4.608000000    -3.822000000
C    -0.450000000    -3.809000000    -2.940000000
C     0.760000000    -3.470000000    -3.444000000
H     0.816000000    -3.117000000    -4.471000000
C    -0.606000000    -4.260000000    -1.609000000
C     0.519000000    -4.207000000    -0.745000000
H     0.433000000    -4.542000000     0.285000000
C     1.748000000    -3.939000000    -1.297000000
O     2.878000000    -3.892000000    -0.485000000
C     3.282000000    -2.623000000    -0.005000000
C     3.625000000    -2.650000000     1.478000000
C     2.919000000    -3.496000000     2.257000000
H     2.170000000    -4.199000000     1.903000000
C     4.716000000    -1.911000000     1.985000000
H     5.300000000    -1.322000000     1.282000000
O     4.400000000    -2.247000000    -0.823000000
H     2.472000000    -1.893000000    -0.148000000
C     1.872000000    -3.567000000    -2.643000000
C     3.237000000    -3.167000000    -3.197000000
H     3.291000000    -3.322000000    -4.277000000
H     4.075000000    -3.752000000    -2.810000000
C     3.460000000    -1.693000000    -2.903000000
C     4.162000000    -1.328000000    -1.766000000
C     4.365000000     0.050000000    -1.488000000
H     4.904000000     0.309000000    -0.581000000
C     3.978000000     0.982000000    -2.395000000
O     4.045000000     2.265000000    -1.913000000
C     2.835000000     2.807000000    -1.372000000
H     2.173000000     1.934000000    -1.276000000
C     2.990000000     3.517000000    -0.015000000
C     2.131000000     4.581000000     0.183000000
H     1.407000000     4.842000000    -0.585000000
C     3.905000000     3.116000000     0.917000000
H     4.582000000     2.294000000     0.698000000
C     4.036000000     3.781000000     2.133000000
O     4.799000000     3.345000000     3.211000000
C     3.213000000     4.842000000     2.337000000
H     3.268000000     5.404000000     3.266000000
C     2.347000000     5.301000000     1.389000000
O     1.665000000     6.485000000     1.694000000
C     0.439000000     6.683000000     1.245000000
C    -0.693000000     5.958000000     1.643000000
H    -0.669000000     5.128000000     2.344000000
C     0.297000000     7.724000000     0.321000000
H     1.186000000     8.314000000     0.115000000
C    -0.889000000     8.044000000    -0.324000000
H    -0.960000000     8.872000000    -1.025000000
C    -2.068000000     7.388000000     0.155000000
H    -3.078000000     7.654000000    -0.148000000
C    -1.884000000     6.381000000     1.116000000
O    -3.072000000     5.827000000     1.471000000
C    -3.415000000     4.559000000     1.034000000
C    -4.329000000     3.892000000     1.886000000
H    -4.727000000     4.339000000     2.793000000
C    -4.745000000     2.589000000     1.471000000
O    -5.617000000     1.895000000     2.334000000
C    -6.427000000     0.819000000     1.910000000
C    -6.032000000    -0.470000000     2.262000000
H    -5.149000000    -0.684000000     2.858000000
C    -7.592000000     1.046000000     1.166000000
H    -7.830000000     2.071000000     0.891000000
C    -8.303000000    -0.057000000     0.671000000
H    -9.086000000     0.089000000    -0.069000000
C    -7.968000000    -1.348000000     1.160000000
H    -8.582000000    -2.174000000     0.810000000
C    -6.794000000    -1.581000000     1.930000000
O    -6.447000000    -2.795000000     2.363000000
C    -5.143000000    -3.274000000     2.141000000
C    -4.374000000    -3.551000000     3.296000000
H    -4.767000000    -3.410000000     4.300000000
C    -3.021000000    -3.849000000     3.112000000
O    -2.181000000    -4.107000000     4.229000000
C    -1.055000000    -4.894000000     4.180000000
C     0.182000000    -4.289000000     4.501000000
H     0.348000000    -3.281000000     4.871000000
C    -1.141000000    -6.163000000     3.661000000
H    -2.141000000    -6.567000000     3.524000000
C     0.061000000    -6.891000000     3.362000000
H     0.056000000    -7.884000000     2.919000000
C     1.234000000    -6.282000000     3.660000000
H     2.131000000    -6.873000000     3.493000000
C     1.334000000    -4.985000000     4.257000000
O     2.554000000    -4.355000000     4.511000000
C     3.246000000    -3.531000000     3.611000000
C     4.310000000    -2.811000000     4.167000000
H     4.612000000    -2.919000000     5.206000000
C     5.023000000    -1.935000000     3.313000000
O     5.991000000    -1.166000000     3.832000000
C     6.307000000     0.051000000     3.353000000
C     7.587000000     0.300000000     2.824000000
H     8.261000000    -0.552000000     2.794000000
C     7.975000000     1.603000000     2.426000000
H     8.897000000     1.773000000     1.875000000
C     7.007000000     2.657000000     2.656000000
H     7.249000000     3.652000000     2.292000000
C     5.738000000     2.373000000     3.048000000
C     5.359000000     1.057000000     3.395000000
H     4.398000000     0.978000000     3.897000000
C    -0.307000000    -1.065000000     2.158000000
H    -0.279000000    -1.999000000     2.714000000
C    -0.266000000    -1.110000000     0.774000000
H    -0.303000000    -2.033000000     0.200000000
C    -0.265000000     0.039000000     0.002000000
H    -0.199000000    -0.105000000    -1.007000000
C    -0.297000000     1.276000000     0.628000000
H    -0.166000000     2.206000000     0.081000000
C    -0.506000000     1.313000000     2.002000000
H    -0.860000000     2.206000000     2.510000000
C    -0.447000000     0.166000000     2.842000000
C    -0.570000000     0.314000000     4.329000000
O    -0.549000000     1.428000000     4.806000000
O    -0.513000000    -0.618000000     5.065000000
O    -1.678000000    -0.837000000     8.711000000
H    -1.481000000    -0.651000000     9.629000000
H    -1.139000000    -0.218000000     8.220000000
O     3.843000000    -0.118000000     7.985000000
H     3.323000000     0.286000000     8.680000000
H     3.218000000    -0.268000000     7.276000000
O    -0.763000000     1.180000000     7.398000000
H    -0.724000000     1.261000000     6.445000000
H    -0.387000000     1.998000000     7.723000000
O    -0.265000000    -2.329000000     7.066000000
H    -0.840000000    -1.865000000     7.674000000
H    -0.398000000    -1.888000000     6.226000000
O     0.503000000     3.587000000     8.665000000
H     0.779000000     3.951000000     7.825000000
H     0.408000000     4.348000000     9.237000000
O     1.099000000     4.533000000     6.133000000
H     1.232000000     3.890000000     5.436000000
H     1.983000000     4.749000000     6.431000000
O     2.060000000    -0.520000000     5.990000000
H     1.114000000    -0.447000000     5.861000000
H     2.355000000    -1.089000000     5.279000000
O    -3.201000000    -1.109000000     5.550000000
H    -3.121000000    -2.052000000     5.407000000
H    -2.301000000    -0.785000000     5.516000000
O    -4.634000000    -1.361000000     7.906000000
H    -4.591000000    -1.304000000     6.951000000
H    -4.083000000    -2.112000000     8.126000000
O    -1.372000000     5.923000000     6.550000000
H    -1.849000000     5.330000000     5.970000000
H    -0.493000000     5.548000000     6.607000000
O     2.083000000    -3.422000000     8.608000000
H     2.757000000    -2.977000000     9.122000000
H     1.391000000    -2.769000000     8.503000000
O     1.695000000     2.699000000     4.240000000
H     1.949000000     2.399000000     3.367000000
H     0.980000000     2.117000000     4.494000000
O    -5.362000000     0.587000000     4.939000000
H    -5.354000000     0.613000000     3.982000000
H    -4.549000000     0.140000000     5.173000000
O    -2.300000000     3.639000000     4.835000000
H    -2.993000000     2.981000000     4.895000000
H    -1.491000000     3.131000000     4.780000000
O    -3.872000000     1.801000000     9.352000000
H    -3.329000000     1.161000000     8.894000000
H    -3.388000000     1.996000000    10.155000000
O     3.607000000     2.283000000     6.101000000
H     3.718000000     1.386000000     6.415000000
H     2.860000000     2.237000000     5.504000000
O    -1.276000000    -4.780000000     7.328000000
H    -0.708000000    -4.079000000     7.009000000
H    -0.793000000    -5.585000000     7.137000000
O     2.156000000     1.476000000     9.371000000
H     1.650000000     2.251000000     9.127000000
H     2.839000000     1.809000000     9.954000000
O    -3.893000000    -4.589000000     6.867000000
H    -4.065000000    -5.223000000     6.171000000
H    -2.939000000    -4.518000000     6.895000000
