215
-1471.46948
C    -5.003000000     1.908000000     0.858000000
H    -5.698000000     1.196000000     0.419000000
C    -3.853000000     2.388000000     0.209000000
C    -3.049000000     3.367000000     0.778000000
H    -2.123000000     3.710000000     0.322000000
C    -3.597000000     1.884000000    -1.153000000
O    -4.597000000     0.939000000    -1.745000000
H    -2.606000000     1.449000000    -0.958000000
O    -3.400000000     2.996000000    -2.104000000
C    -2.302000000     2.847000000    -3.031000000
C    -1.171000000     3.604000000    -2.657000000
H    -1.203000000     4.306000000    -1.828000000
C     0.068000000     3.359000000    -3.267000000
O     1.119000000     4.069000000    -2.775000000
C     0.128000000     2.369000000    -4.252000000
C     1.410000000     2.128000000    -4.977000000
H     1.155000000     1.846000000    -6.001000000
C     2.262000000     1.080000000    -4.237000000
C     2.188000000    -0.296000000    -4.505000000
H     1.593000000    -0.751000000    -5.293000000
H     1.945000000     3.068000000    -5.128000000
C    -1.018000000     1.668000000    -4.616000000
H    -0.963000000     0.931000000    -5.413000000
C    -2.173000000     1.782000000    -3.897000000
C    -3.293000000     0.920000000    -4.226000000
H    -3.090000000     0.615000000    -5.255000000
H    -4.223000000     1.489000000    -4.272000000
C    -3.323000000    -0.309000000    -3.395000000
C    -2.630000000    -1.473000000    -3.778000000
H    -2.224000000    -1.553000000    -4.784000000
C    -3.975000000    -0.234000000    -2.140000000
C    -3.991000000    -1.353000000    -1.286000000
H    -4.474000000    -1.230000000    -0.320000000
C    -3.315000000    -2.451000000    -1.688000000
O    -3.273000000    -3.589000000    -0.875000000
C    -2.078000000    -3.765000000    -0.112000000
C    -2.330000000    -3.758000000     1.410000000
C    -1.458000000    -4.384000000     2.290000000
H    -0.562000000    -4.812000000     1.846000000
C    -3.531000000    -3.215000000     1.923000000
H    -4.318000000    -2.815000000     1.289000000
O    -1.281000000    -4.853000000    -0.627000000
H    -1.467000000    -2.876000000    -0.327000000
C    -2.719000000    -2.559000000    -2.933000000
C    -2.071000000    -3.866000000    -3.383000000
H    -2.079000000    -3.928000000    -4.473000000
H    -2.553000000    -4.823000000    -3.172000000
C    -0.685000000    -3.930000000    -2.854000000
C     0.303000000    -3.347000000    -3.665000000
H    -0.015000000    -2.836000000    -4.569000000
C    -0.328000000    -4.456000000    -1.596000000
C     0.958000000    -4.443000000    -1.176000000
H     1.130000000    -4.773000000    -0.155000000
C     1.959000000    -3.861000000    -1.958000000
O     3.169000000    -3.758000000    -1.295000000
C     3.461000000    -2.382000000    -0.855000000
C     3.909000000    -2.302000000     0.621000000
C     3.355000000    -3.213000000     1.606000000
H     2.678000000    -4.027000000     1.358000000
C     4.860000000    -1.357000000     1.055000000
H     5.311000000    -0.658000000     0.356000000
O     4.273000000    -1.716000000    -1.823000000
H     2.450000000    -1.951000000    -0.891000000
C     1.633000000    -3.334000000    -3.206000000
C     2.776000000    -2.740000000    -4.069000000
H     2.568000000    -2.821000000    -5.138000000
H     3.670000000    -3.348000000    -3.918000000
C     2.923000000    -1.233000000    -3.721000000
C     3.671000000    -0.779000000    -2.646000000
C     3.816000000     0.592000000    -2.395000000
H     4.417000000     0.997000000    -1.585000000
C     3.093000000     1.515000000    -3.187000000
O     3.167000000     2.844000000    -2.749000000
C     2.061000000     3.357000000    -1.975000000
H     1.430000000     2.526000000    -1.628000000
C     2.621000000     4.186000000    -0.858000000
C     1.862000000     5.232000000    -0.333000000
H     0.878000000     5.467000000    -0.731000000
C     3.840000000     3.951000000    -0.168000000
H     4.431000000     3.083000000    -0.448000000
C     4.273000000     4.698000000     0.944000000
O     5.345000000     4.337000000     1.706000000
C     3.523000000     5.695000000     1.413000000
H     3.777000000     6.218000000     2.332000000
C     2.308000000     5.929000000     0.807000000
O     1.601000000     6.963000000     1.332000000
C     0.230000000     6.853000000     1.559000000
C    -0.370000000     5.757000000     2.261000000
H     0.256000000     4.949000000     2.630000000
C    -0.595000000     7.894000000     1.118000000
H    -0.131000000     8.753000000     0.641000000
C    -1.942000000     7.769000000     1.135000000
H    -2.624000000     8.554000000     0.819000000
C    -2.581000000     6.662000000     1.650000000
H    -3.664000000     6.578000000     1.670000000
C    -1.772000000     5.601000000     2.189000000
O    -2.348000000     4.505000000     2.764000000
C    -3.245000000     3.718000000     2.093000000
C    -4.294000000     3.163000000     2.753000000
H    -4.419000000     3.439000000     3.797000000
C    -5.137000000     2.231000000     2.245000000
O    -6.104000000     1.720000000     3.102000000
C    -6.400000000     0.367000000     2.838000000
C    -5.566000000    -0.646000000     3.409000000
H    -4.721000000    -0.340000000     4.020000000
C    -7.567000000     0.030000000     2.105000000
H    -8.188000000     0.834000000     1.717000000
C    -7.877000000    -1.340000000     1.899000000
H    -8.742000000    -1.600000000     1.295000000
C    -7.034000000    -2.310000000     2.427000000
H    -7.162000000    -3.354000000     2.154000000
C    -5.900000000    -1.941000000     3.287000000
O    -5.086000000    -2.909000000     3.783000000
C    -3.882000000    -3.355000000     3.258000000
C    -2.974000000    -3.948000000     4.154000000
H    -3.207000000    -4.100000000     5.205000000
C    -1.792000000    -4.470000000     3.642000000
O    -0.969000000    -5.119000000     4.557000000
C     0.233000000    -5.572000000     4.124000000
C     1.356000000    -4.686000000     4.169000000
H     1.316000000    -3.689000000     4.600000000
C     0.385000000    -6.838000000     3.645000000
H    -0.387000000    -7.602000000     3.692000000
C     1.636000000    -7.222000000     3.111000000
H     1.778000000    -8.191000000     2.638000000
C     2.640000000    -6.268000000     3.013000000
H     3.566000000    -6.583000000     2.538000000
C     2.535000000    -5.070000000     3.673000000
O     3.616000000    -4.160000000     3.820000000
C     3.939000000    -3.205000000     2.917000000
C     4.862000000    -2.238000000     3.349000000
H     5.157000000    -2.174000000     4.394000000
C     5.278000000    -1.279000000     2.404000000
O     6.123000000    -0.309000000     2.816000000
C     6.428000000     0.832000000     2.084000000
C     7.614000000     0.786000000     1.364000000
H     8.197000000    -0.119000000     1.215000000
C     7.942000000     1.901000000     0.602000000
H     8.806000000     1.790000000    -0.049000000
C     7.238000000     3.150000000     0.685000000
H     7.690000000     4.036000000     0.248000000
C     6.096000000     3.217000000     1.490000000
C     5.660000000     2.030000000     2.140000000
H     4.759000000     2.102000000     2.743000000
C     0.784000000    -0.534000000     2.279000000
H     1.050000000    -1.031000000     3.208000000
C     0.410000000    -1.199000000     1.074000000
H     0.333000000    -2.283000000     1.076000000
C    -0.036000000    -0.451000000    -0.043000000
H    -0.397000000    -0.918000000    -0.916000000
C    -0.056000000     0.912000000     0.050000000
H    -0.414000000     1.475000000    -0.808000000
C     0.515000000     1.542000000     1.147000000
H     0.528000000     2.629000000     1.180000000
C     0.862000000     0.841000000     2.297000000
C     1.162000000     1.634000000     3.569000000
O     0.747000000     2.771000000     3.637000000
O     1.505000000     1.079000000     4.557000000
O    -0.974000000     2.149000000     7.659000000
H    -0.672000000     3.029000000     7.433000000
H    -1.252000000     1.770000000     6.825000000
O     1.241000000    -1.029000000     8.624000000
H     1.121000000    -0.248000000     9.164000000
H     2.040000000    -1.433000000     8.962000000
O     4.824000000     3.027000000     5.383000000
H     4.509000000     2.159000000     5.131000000
H     5.592000000     3.172000000     4.831000000
O     1.367000000    -4.138000000     7.479000000
H     1.365000000    -3.271000000     7.074000000
H     2.261000000    -4.250000000     7.801000000
O     4.539000000     1.384000000     7.940000000
H     4.830000000     1.609000000     7.056000000
H     3.584000000     1.430000000     7.898000000
O     1.953000000     2.095000000     6.973000000
H     1.191000000     1.744000000     7.434000000
H     1.753000000     1.964000000     6.046000000
O    -2.136000000     0.758000000     3.611000000
H    -2.171000000     1.614000000     4.037000000
H    -1.613000000     0.904000000     2.823000000
O    -1.407000000     3.220000000     5.027000000
H    -0.529000000     3.157000000     4.653000000
H    -1.845000000     3.888000000     4.499000000
O     1.192000000    -1.496000000     5.877000000
H     1.310000000    -1.337000000     6.814000000
H     1.364000000    -0.648000000     5.467000000
O     3.624000000     4.213000000     8.692000000
H     4.070000000     3.627000000     9.304000000
H     3.404000000     3.657000000     7.945000000
O     2.094000000     4.493000000     4.854000000
H     2.702000000     4.019000000     5.421000000
H     1.557000000     3.809000000     4.454000000
O    -1.885000000    -0.764000000     5.909000000
H    -1.788000000    -0.233000000     5.118000000
H    -1.425000000    -1.579000000     5.708000000
O    -2.347000000     5.765000000     5.346000000
H    -3.227000000     6.138000000     5.292000000
H    -1.767000000     6.479000000     5.082000000
O     4.011000000     0.534000000     5.111000000
H     3.069000000     0.646000000     4.987000000
H     4.113000000    -0.386000000     5.353000000
O    -2.235000000    -0.170000000     9.097000000
H    -1.783000000     0.342000000     8.427000000
H    -1.679000000    -0.939000000     9.227000000
O    -0.101000000     4.628000000     7.280000000
H    -0.719000000     4.987000000     6.643000000
H     0.761000000     4.861000000     6.933000000
O     5.617000000     5.778000000     4.447000000
H     4.746000000     5.424000000     4.267000000
H     5.480000000     6.401000000     5.161000000
O    -3.831000000     3.535000000     6.833000000
H    -3.219000000     4.218000000     6.558000000
H    -3.272000000     2.805000000     7.098000000
O     1.769000000     7.650000000     5.256000000
H     2.458000000     8.129000000     5.716000000
H     2.149000000     6.788000000     5.084000000
