215
-1450.65073
C    -4.455000000    -0.137000000     2.655000000
H    -4.673000000    -1.114000000     2.232000000
C    -4.097000000     0.870000000     1.743000000
C    -3.723000000     2.104000000     2.279000000
H    -3.375000000     2.914000000     1.643000000
C    -4.046000000     0.660000000     0.187000000
O    -4.821000000    -0.494000000    -0.304000000
H    -3.034000000     0.466000000    -0.198000000
O    -4.495000000     1.813000000    -0.590000000
C    -3.590000000     2.069000000    -1.632000000
C    -2.742000000     3.190000000    -1.468000000
H    -2.809000000     3.755000000    -0.542000000
C    -1.767000000     3.472000000    -2.402000000
O    -0.899000000     4.511000000    -2.062000000
C    -1.734000000     2.801000000    -3.617000000
C    -0.673000000     3.158000000    -4.641000000
H    -1.088000000     2.935000000    -5.627000000
C     0.581000000     2.411000000    -4.318000000
C     0.791000000     1.117000000    -4.880000000
H     0.030000000     0.675000000    -5.518000000
H    -0.432000000     4.220000000    -4.720000000
C    -2.615000000     1.732000000    -3.831000000
H    -2.525000000     1.122000000    -4.726000000
C    -3.558000000     1.324000000    -2.850000000
C    -4.510000000     0.209000000    -3.102000000
H    -4.762000000     0.185000000    -4.164000000
H    -5.482000000     0.485000000    -2.688000000
C    -4.038000000    -1.125000000    -2.507000000
C    -3.341000000    -2.014000000    -3.335000000
H    -3.113000000    -1.810000000    -4.378000000
C    -4.232000000    -1.366000000    -1.152000000
C    -3.713000000    -2.497000000    -0.572000000
H    -3.807000000    -2.668000000     0.497000000
C    -2.941000000    -3.364000000    -1.362000000
O    -2.370000000    -4.467000000    -0.836000000
C    -0.944000000    -4.241000000    -0.481000000
C    -0.633000000    -4.697000000     0.962000000
C     0.615000000    -4.691000000     1.488000000
H     1.370000000    -4.395000000     0.764000000
C    -1.678000000    -4.907000000     1.911000000
H    -2.712000000    -4.944000000     1.580000000
O    -0.043000000    -4.843000000    -1.453000000
H    -0.706000000    -3.168000000    -0.429000000
C    -2.764000000    -3.101000000    -2.706000000
C    -1.811000000    -3.977000000    -3.577000000
H    -2.093000000    -3.895000000    -4.629000000
H    -1.869000000    -5.059000000    -3.440000000
C    -0.362000000    -3.401000000    -3.408000000
C     0.172000000    -2.504000000    -4.348000000
H    -0.448000000    -2.043000000    -5.114000000
C     0.453000000    -3.936000000    -2.377000000
C     1.811000000    -3.613000000    -2.316000000
H     2.393000000    -4.023000000    -1.495000000
C     2.346000000    -2.729000000    -3.211000000
O     3.525000000    -2.189000000    -2.900000000
C     3.518000000    -0.940000000    -2.226000000
C     4.555000000    -0.887000000    -1.112000000
C     4.857000000    -2.019000000    -0.429000000
H     4.467000000    -3.003000000    -0.676000000
C     5.179000000     0.320000000    -0.753000000
H     4.975000000     1.217000000    -1.331000000
O     3.810000000     0.023000000    -3.205000000
H     2.533000000    -0.690000000    -1.803000000
C     1.573000000    -2.182000000    -4.249000000
C     2.151000000    -1.030000000    -5.137000000
H     1.706000000    -1.053000000    -6.133000000
H     3.193000000    -1.038000000    -5.462000000
C     1.859000000     0.344000000    -4.471000000
C     2.751000000     0.822000000    -3.487000000
C     2.528000000     2.124000000    -2.939000000
H     3.252000000     2.611000000    -2.291000000
C     1.439000000     2.850000000    -3.308000000
O     1.258000000     4.063000000    -2.713000000
C     0.339000000     4.078000000    -1.572000000
H     0.250000000     3.058000000    -1.170000000
C     0.792000000     4.871000000    -0.367000000
C    -0.085000000     5.621000000     0.347000000
H    -1.075000000     5.820000000    -0.055000000
C     1.999000000     4.563000000     0.132000000
H     2.644000000     3.881000000    -0.417000000
C     2.468000000     5.143000000     1.312000000
O     3.737000000     4.951000000     1.750000000
C     1.603000000     5.900000000     2.095000000
H     1.840000000     6.244000000     3.099000000
C     0.316000000     6.099000000     1.583000000
O    -0.553000000     6.869000000     2.257000000
C    -1.733000000     6.389000000     2.791000000
C    -1.888000000     5.048000000     3.194000000
H    -1.017000000     4.402000000     3.274000000
C    -2.825000000     7.290000000     2.947000000
H    -2.556000000     8.312000000     2.693000000
C    -4.044000000     6.804000000     3.495000000
H    -4.871000000     7.495000000     3.634000000
C    -4.185000000     5.464000000     3.850000000
H    -5.093000000     4.999000000     4.227000000
C    -3.127000000     4.641000000     3.700000000
O    -3.298000000     3.459000000     4.230000000
C    -3.691000000     2.289000000     3.641000000
C    -3.980000000     1.264000000     4.552000000
H    -3.748000000     1.437000000     5.600000000
C    -4.398000000     0.077000000     4.058000000
O    -4.631000000    -1.038000000     4.876000000
C    -4.641000000    -2.375000000     4.440000000
C    -3.448000000    -3.057000000     4.255000000
H    -2.472000000    -2.579000000     4.285000000
C    -5.904000000    -2.959000000     4.366000000
H    -6.828000000    -2.396000000     4.475000000
C    -5.963000000    -4.366000000     4.171000000
H    -6.882000000    -4.938000000     4.078000000
C    -4.784000000    -5.111000000     4.143000000
H    -4.744000000    -6.197000000     4.115000000
C    -3.575000000    -4.404000000     4.152000000
O    -2.405000000    -5.167000000     4.180000000
C    -1.418000000    -5.041000000     3.257000000
C    -0.086000000    -5.033000000     3.733000000
H     0.077000000    -5.155000000     4.800000000
C     0.965000000    -4.938000000     2.819000000
O     2.255000000    -4.810000000     3.235000000
C     3.319000000    -5.094000000     2.411000000
C     4.283000000    -4.127000000     2.193000000
H     4.163000000    -3.181000000     2.715000000
C     3.417000000    -6.275000000     1.711000000
H     2.698000000    -7.039000000     1.997000000
C     4.514000000    -6.531000000     0.861000000
H     4.585000000    -7.437000000     0.266000000
C     5.477000000    -5.532000000     0.667000000
H     6.383000000    -5.734000000     0.101000000
C     5.336000000    -4.323000000     1.327000000
O     6.186000000    -3.225000000     1.108000000
C     5.762000000    -2.014000000     0.626000000
C     6.370000000    -0.766000000     1.002000000
H     7.137000000    -0.775000000     1.772000000
C     6.033000000     0.365000000     0.332000000
O     6.666000000     1.418000000     0.735000000
C     6.206000000     2.677000000     0.369000000
C     6.606000000     3.361000000    -0.745000000
H     7.318000000     2.890000000    -1.418000000
C     6.172000000     4.704000000    -0.944000000
H     6.498000000     5.291000000    -1.799000000
C     5.205000000     5.234000000    -0.095000000
H     4.912000000     6.263000000    -0.282000000
C     4.707000000     4.502000000     0.960000000
C     5.355000000     3.314000000     1.339000000
H     5.130000000     2.806000000     2.273000000
C     2.089000000    -0.855000000     1.388000000
H     2.861000000    -1.430000000     1.892000000
C     1.420000000    -1.312000000     0.295000000
H     1.775000000    -2.260000000    -0.102000000
C     0.437000000    -0.514000000    -0.255000000
H    -0.170000000    -0.877000000    -1.048000000
C     0.230000000     0.781000000     0.271000000
H    -0.620000000     1.324000000    -0.134000000
C     0.988000000     1.234000000     1.352000000
H     0.745000000     2.194000000     1.799000000
C     1.951000000     0.409000000     1.962000000
C     2.623000000     0.762000000     3.221000000
O     2.396000000     1.776000000     3.850000000
O     3.268000000    -0.061000000     3.789000000
O     4.969000000     1.328000000     7.614000000
H     4.135000000     1.739000000     7.387000000
H     4.904000000     1.158000000     8.553000000
O     2.589000000    -0.556000000     8.542000000
H     3.241000000    -0.043000000     9.020000000
H     1.890000000    -0.707000000     9.178000000
O     7.249000000    -3.311000000     4.261000000
H     6.390000000    -2.899000000     4.176000000
H     7.311000000    -3.546000000     5.187000000
O     5.138000000    -1.735000000     4.991000000
H     4.683000000    -1.145000000     4.390000000
H     5.857000000    -1.210000000     5.343000000
O     2.184000000     1.320000000     6.666000000
H     2.348000000     1.314000000     5.723000000
H     2.276000000     0.405000000     6.931000000
O    -0.312000000     2.034000000     4.621000000
H     0.554000000     2.054000000     4.214000000
H    -0.174000000     2.397000000     5.496000000
O    -1.389000000    -0.492000000     7.215000000
H    -0.962000000    -0.534000000     6.359000000
H    -1.920000000    -1.287000000     7.257000000
O     7.845000000     1.274000000     6.310000000
H     7.225000000     1.455000000     5.604000000
H     7.298000000     0.991000000     7.043000000
O     8.652000000    -0.807000000     3.916000000
H     8.516000000    -1.732000000     4.121000000
H     7.770000000    -0.458000000     3.787000000
O     3.908000000     3.736000000     5.048000000
H     4.059000000     4.550000000     4.567000000
H     3.301000000     3.242000000     4.497000000
O     0.528000000    -1.623000000     4.476000000
H     1.307000000    -1.082000000     4.352000000
H     0.003000000    -1.472000000     3.690000000
O    -1.116000000    -0.706000000     2.281000000
H    -2.006000000    -0.355000000     2.316000000
H    -0.638000000    -0.092000000     1.724000000
O     2.252000000     4.006000000     7.544000000
H     1.321000000     4.119000000     7.351000000
H     2.436000000     3.096000000     7.311000000
O     0.430000000     1.819000000     8.731000000
H     0.371000000     1.020000000     9.254000000
H     0.819000000     1.536000000     7.903000000
O     5.640000000     1.038000000     4.882000000
H     4.866000000     0.828000000     4.359000000
H     5.301000000     1.172000000     5.768000000
O     6.601000000    -1.071000000     7.350000000
H     5.685000000    -0.827000000     7.219000000
H     6.619000000    -1.479000000     8.216000000
O     5.994000000     3.653000000     6.837000000
H     5.255000000     3.967000000     6.317000000
H     5.800000000     2.729000000     6.995000000
O     3.543000000    -3.840000000     5.454000000
H     4.039000000    -3.023000000     5.401000000
H     2.954000000    -3.812000000     4.701000000
O     1.369000000    -2.834000000     6.979000000
H     1.149000000    -2.514000000     6.104000000
H     2.123000000    -3.407000000     6.842000000
