215
-1430.33149
C    -0.081000000     2.717000000    -3.487000000
H    -0.285000000     1.688000000    -3.770000000
C     1.221000000     3.061000000    -3.118000000
C     1.474000000     4.309000000    -2.630000000
H     2.487000000     4.551000000    -2.320000000
C     2.342000000     2.002000000    -2.857000000
O     2.458000000     1.089000000    -3.985000000
H     2.041000000     1.371000000    -2.008000000
O     3.636000000     2.514000000    -2.556000000
C     4.319000000     1.890000000    -1.530000000
C     4.287000000     2.510000000    -0.277000000
H     3.710000000     3.429000000    -0.211000000
C     4.668000000     1.757000000     0.822000000
O     4.255000000     2.269000000     2.007000000
C     5.121000000     0.436000000     0.792000000
C     5.353000000    -0.327000000     2.058000000
H     6.154000000    -1.060000000     1.938000000
C     4.124000000    -1.061000000     2.502000000
C     3.860000000    -2.428000000     2.171000000
H     4.619000000    -2.947000000     1.592000000
H     5.547000000     0.384000000     2.863000000
C     5.189000000    -0.134000000    -0.512000000
H     5.474000000    -1.176000000    -0.631000000
C     4.835000000     0.597000000    -1.671000000
C     4.835000000    -0.121000000    -3.033000000
H     5.653000000    -0.845000000    -3.045000000
H     5.036000000     0.594000000    -3.834000000
C     3.530000000    -0.963000000    -3.256000000
C     3.448000000    -2.353000000    -3.054000000
H     4.301000000    -2.838000000    -2.587000000
C     2.440000000    -0.265000000    -3.801000000
C     1.237000000    -0.890000000    -4.093000000
H     0.355000000    -0.381000000    -4.474000000
C     1.151000000    -2.276000000    -3.861000000
O    -0.045000000    -2.915000000    -4.089000000
C    -0.952000000    -3.068000000    -2.989000000
C    -2.470000000    -2.821000000    -3.346000000
C    -3.503000000    -3.518000000    -2.719000000
H    -3.411000000    -4.373000000    -2.054000000
C    -2.815000000    -1.776000000    -4.266000000
H    -1.995000000    -1.254000000    -4.751000000
O    -0.753000000    -4.392000000    -2.543000000
H    -0.682000000    -2.276000000    -2.275000000
C     2.214000000    -3.016000000    -3.360000000
C     2.026000000    -4.440000000    -2.888000000
H     2.995000000    -4.939000000    -2.957000000
H     1.344000000    -5.028000000    -3.506000000
C     1.424000000    -4.502000000    -1.498000000
C     2.251000000    -4.653000000    -0.390000000
H     3.321000000    -4.809000000    -0.504000000
C     0.042000000    -4.462000000    -1.377000000
C    -0.529000000    -4.395000000    -0.110000000
H    -1.616000000    -4.378000000    -0.097000000
C     0.274000000    -4.449000000     1.016000000
O    -0.409000000    -4.298000000     2.168000000
C    -0.334000000    -3.020000000     2.858000000
C    -1.711000000    -2.573000000     3.363000000
C    -2.881000000    -2.766000000     2.574000000
H    -2.909000000    -3.228000000     1.591000000
C    -1.851000000    -2.038000000     4.644000000
H    -0.999000000    -1.923000000     5.308000000
O     0.701000000    -3.102000000     3.811000000
H    -0.030000000    -2.374000000     2.022000000
C     1.672000000    -4.642000000     0.865000000
C     2.561000000    -4.597000000     2.120000000
H     3.560000000    -5.022000000     2.000000000
H     2.084000000    -5.223000000     2.877000000
C     2.799000000    -3.085000000     2.630000000
C     1.948000000    -2.512000000     3.583000000
C     2.149000000    -1.227000000     3.940000000
H     1.489000000    -0.683000000     4.611000000
C     3.211000000    -0.491000000     3.435000000
O     3.245000000     0.834000000     3.664000000
C     3.037000000     1.763000000     2.573000000
H     2.385000000     1.334000000     1.798000000
C     2.126000000     2.888000000     3.034000000
C     2.059000000     4.185000000     2.421000000
H     2.779000000     4.532000000     1.684000000
C     1.033000000     2.450000000     3.824000000
H     1.018000000     1.516000000     4.380000000
C     0.087000000     3.398000000     4.190000000
O    -1.057000000     3.124000000     4.844000000
C     0.104000000     4.711000000     3.776000000
H    -0.639000000     5.432000000     4.105000000
C     1.087000000     5.130000000     2.895000000
O     1.168000000     6.468000000     2.466000000
C     1.466000000     6.881000000     1.177000000
C     0.970000000     6.374000000     0.002000000
H     0.311000000     5.510000000     0.020000000
C     2.472000000     7.897000000     1.125000000
H     2.998000000     8.247000000     2.009000000
C     2.835000000     8.447000000    -0.086000000
H     3.594000000     9.209000000    -0.241000000
C     2.144000000     8.065000000    -1.172000000
H     2.184000000     8.566000000    -2.136000000
C     1.277000000     7.014000000    -1.165000000
O     0.814000000     6.547000000    -2.357000000
C     0.536000000     5.265000000    -2.686000000
C    -0.723000000     4.982000000    -3.195000000
H    -1.450000000     5.778000000    -3.333000000
C    -1.049000000     3.645000000    -3.543000000
O    -2.313000000     3.309000000    -3.987000000
C    -2.744000000     2.534000000    -5.012000000
C    -3.342000000     1.307000000    -4.740000000
H    -3.403000000     0.913000000    -3.728000000
C    -2.624000000     2.925000000    -6.301000000
H    -2.318000000     3.954000000    -6.470000000
C    -3.149000000     2.170000000    -7.307000000
H    -3.288000000     2.670000000    -8.262000000
C    -3.830000000     1.009000000    -7.035000000
H    -4.362000000     0.472000000    -7.817000000
C    -3.846000000     0.538000000    -5.724000000
O    -4.537000000    -0.636000000    -5.548000000
C    -4.095000000    -1.514000000    -4.571000000
C    -5.146000000    -2.090000000    -3.852000000
H    -6.173000000    -1.769000000    -4.005000000
C    -4.847000000    -3.115000000    -2.953000000
O    -5.897000000    -3.769000000    -2.350000000
C    -6.006000000    -4.028000000    -0.934000000
C    -5.577000000    -3.180000000     0.095000000
H    -5.076000000    -2.264000000    -0.208000000
C    -6.656000000    -5.170000000    -0.564000000
H    -7.038000000    -5.857000000    -1.315000000
C    -6.779000000    -5.560000000     0.814000000
H    -7.335000000    -6.475000000     1.003000000
C    -6.204000000    -4.731000000     1.826000000
H    -6.381000000    -5.059000000     2.847000000
C    -5.541000000    -3.572000000     1.419000000
O    -5.319000000    -2.632000000     2.444000000
C    -4.151000000    -2.441000000     3.134000000
C    -4.221000000    -1.938000000     4.421000000
H    -5.129000000    -1.538000000     4.865000000
C    -3.062000000    -1.693000000     5.121000000
O    -3.183000000    -0.947000000     6.320000000
C    -2.181000000    -0.030000000     6.560000000
C    -1.204000000    -0.197000000     7.500000000
H    -1.204000000    -1.140000000     8.041000000
C    -0.244000000     0.806000000     7.718000000
H     0.652000000     0.783000000     8.332000000
C    -0.256000000     1.910000000     6.802000000
H     0.568000000     2.617000000     6.854000000
C    -1.125000000     2.033000000     5.747000000
C    -2.144000000     1.108000000     5.743000000
H    -3.035000000     1.203000000     5.128000000
C    -2.724000000     0.379000000    -0.444000000
H    -3.769000000     0.211000000    -0.691000000
C    -1.994000000    -0.791000000    -0.174000000
H    -2.436000000    -1.784000000    -0.185000000
C    -0.629000000    -0.710000000     0.024000000
H    -0.172000000    -1.682000000    -0.068000000
C    -0.033000000     0.521000000     0.239000000
H     1.019000000     0.742000000     0.400000000
C    -0.756000000     1.679000000     0.065000000
H    -0.407000000     2.681000000     0.303000000
C    -2.096000000     1.595000000    -0.312000000
C    -3.004000000     2.756000000    -0.315000000
O    -2.538000000     3.819000000     0.066000000
O    -4.192000000     2.635000000    -0.692000000
O    -8.841000000     1.681000000     0.022000000
H    -9.298000000     1.425000000    -0.779000000
H    -7.977000000     1.276000000    -0.055000000
O    -4.090000000     4.797000000     4.638000000
H    -3.137000000     4.884000000     4.624000000
H    -4.411000000     5.613000000     4.254000000
O    -7.515000000     6.023000000    -3.180000000
H    -6.996000000     5.935000000    -2.381000000
H    -8.384000000     6.282000000    -2.875000000
O    -3.871000000     5.401000000    -1.939000000
H    -4.773000000     5.084000000    -1.980000000
H    -3.433000000     4.800000000    -1.336000000
O    -2.982000000     2.848000000     2.881000000
H    -2.176000000     2.967000000     3.384000000
H    -2.865000000     3.400000000     2.108000000
O    -2.223000000     7.715000000    -1.382000000
H    -1.536000000     7.759000000    -2.047000000
H    -2.709000000     6.918000000    -1.592000000
O    -1.270000000     7.956000000     3.125000000
H    -1.644000000     7.321000000     2.515000000
H    -0.730000000     8.525000000     2.576000000
O    -4.782000000     7.287000000    -4.020000000
H    -4.589000000     6.702000000    -3.288000000
H    -4.796000000     6.714000000    -4.787000000
O    -5.657000000     2.265000000     3.220000000
H    -4.774000000     2.627000000     3.148000000
H    -5.553000000     1.487000000     3.768000000
O    -6.115000000     1.310000000     0.513000000
H    -5.992000000     1.659000000     1.396000000
H    -5.355000000     1.624000000     0.023000000
O    -6.560000000     7.151000000     1.898000000
H    -6.556000000     8.107000000     1.846000000
H    -5.692000000     6.926000000     2.234000000
O    -8.056000000    -0.611000000    -1.946000000
H    -7.495000000    -0.125000000    -2.551000000
H    -7.505000000    -0.762000000    -1.178000000
O    -5.278000000     4.471000000     1.007000000
H    -4.641000000     3.883000000     0.602000000
H    -5.447000000     4.086000000     1.867000000
O    -8.384000000     3.650000000     2.623000000
H    -8.342000000     4.572000000     2.877000000
H    -7.472000000     3.361000000     2.615000000
O    -6.015000000     3.748000000    -1.914000000
H    -5.260000000     3.300000000    -1.532000000
H    -6.299000000     3.174000000    -2.626000000
O    -2.022000000     6.035000000     1.371000000
H    -2.049000000     6.540000000     0.558000000
H    -2.200000000     5.135000000     1.100000000
O    -8.860000000     4.289000000    -0.568000000
H    -8.817000000     3.380000000    -0.271000000
H    -8.043000000     4.423000000    -1.047000000
O    -4.817000000     8.595000000    -0.567000000
H    -5.346000000     7.830000000    -0.794000000
H    -3.951000000     8.238000000    -0.370000000
O    -6.952000000     6.268000000    -0.419000000
H    -6.704000000     6.716000000     0.390000000
H    -6.681000000     5.360000000    -0.284000000
