215
-1451.69394
C    -4.725000000     0.754000000     2.467000000
H    -5.331000000     0.030000000     1.927000000
C    -4.097000000     1.759000000     1.701000000
C    -3.412000000     2.802000000     2.291000000
H    -3.001000000     3.511000000     1.576000000
C    -3.966000000     1.582000000     0.165000000
O    -4.931000000     0.760000000    -0.418000000
H    -3.041000000     1.013000000    -0.011000000
O    -3.883000000     2.839000000    -0.675000000
C    -2.918000000     2.915000000    -1.607000000
C    -1.743000000     3.651000000    -1.278000000
H    -1.603000000     4.062000000    -0.282000000
C    -0.697000000     3.742000000    -2.204000000
O     0.396000000     4.517000000    -1.802000000
C    -0.837000000     3.112000000    -3.461000000
C     0.254000000     3.351000000    -4.533000000
H    -0.277000000     3.319000000    -5.486000000
C     1.286000000     2.245000000    -4.363000000
C     1.205000000     0.931000000    -4.852000000
H     0.357000000     0.575000000    -5.431000000
H     0.690000000     4.344000000    -4.407000000
C    -1.977000000     2.399000000    -3.754000000
H    -2.141000000     1.981000000    -4.744000000
C    -3.039000000     2.317000000    -2.840000000
C    -4.293000000     1.558000000    -3.229000000
H    -4.495000000     1.494000000    -4.301000000
H    -5.190000000     1.993000000    -2.785000000
C    -4.164000000     0.127000000    -2.612000000
C    -3.548000000    -0.828000000    -3.414000000
H    -3.333000000    -0.555000000    -4.444000000
C    -4.535000000    -0.210000000    -1.304000000
C    -4.296000000    -1.489000000    -0.869000000
H    -4.520000000    -1.754000000     0.161000000
C    -3.593000000    -2.415000000    -1.635000000
O    -3.383000000    -3.628000000    -1.062000000
C    -2.036000000    -3.769000000    -0.609000000
C    -1.924000000    -4.292000000     0.806000000
C    -0.730000000    -4.816000000     1.324000000
H     0.155000000    -4.947000000     0.707000000
C    -3.014000000    -4.136000000     1.671000000
H    -3.935000000    -3.688000000     1.307000000
O    -1.282000000    -4.596000000    -1.506000000
H    -1.598000000    -2.759000000    -0.592000000
C    -3.324000000    -2.118000000    -2.943000000
C    -2.556000000    -3.211000000    -3.756000000
H    -2.737000000    -3.110000000    -4.828000000
H    -2.978000000    -4.195000000    -3.541000000
C    -1.104000000    -3.168000000    -3.524000000
C    -0.318000000    -2.346000000    -4.375000000
H    -0.806000000    -1.789000000    -5.171000000
C    -0.550000000    -3.883000000    -2.470000000
C     0.832000000    -3.690000000    -2.176000000
H     1.269000000    -4.276000000    -1.371000000
C     1.676000000    -2.917000000    -3.101000000
O     2.950000000    -2.790000000    -2.695000000
C     3.258000000    -1.522000000    -2.112000000
C     4.242000000    -1.740000000    -0.999000000
C     4.060000000    -2.787000000    -0.107000000
H     3.166000000    -3.373000000    -0.303000000
C     5.202000000    -0.748000000    -0.618000000
H     5.309000000     0.221000000    -1.099000000
O     3.926000000    -0.688000000    -3.091000000
H     2.390000000    -0.969000000    -1.724000000
C     1.047000000    -2.229000000    -4.150000000
C     1.896000000    -1.466000000    -5.149000000
H     1.430000000    -1.493000000    -6.136000000
H     2.819000000    -2.049000000    -5.179000000
C     2.127000000    -0.043000000    -4.551000000
C     3.122000000     0.253000000    -3.646000000
C     3.211000000     1.546000000    -3.111000000
H     4.004000000     1.738000000    -2.393000000
C     2.364000000     2.567000000    -3.456000000
O     2.457000000     3.793000000    -2.768000000
C     1.614000000     3.845000000    -1.591000000
H     1.329000000     2.813000000    -1.339000000
C     2.238000000     4.227000000    -0.213000000
C     1.463000000     4.895000000     0.759000000
H     0.377000000     4.944000000     0.737000000
C     3.596000000     4.044000000     0.049000000
H     4.208000000     3.527000000    -0.686000000
C     4.173000000     4.457000000     1.269000000
O     5.503000000     4.276000000     1.583000000
C     3.378000000     5.059000000     2.213000000
H     3.847000000     5.460000000     3.108000000
C     2.065000000     5.324000000     1.994000000
O     1.335000000     6.012000000     2.975000000
C    -0.076000000     5.988000000     3.048000000
C    -0.747000000     4.944000000     3.735000000
H    -0.152000000     4.221000000     4.288000000
C    -0.835000000     7.098000000     2.654000000
H    -0.284000000     7.885000000     2.145000000
C    -2.190000000     7.164000000     2.816000000
H    -2.725000000     7.999000000     2.371000000
C    -2.868000000     5.997000000     3.198000000
H    -3.949000000     5.975000000     3.318000000
C    -2.140000000     4.926000000     3.736000000
O    -2.802000000     3.887000000     4.321000000
C    -3.365000000     2.817000000     3.678000000
C    -4.051000000     1.908000000     4.414000000
H    -4.057000000     2.008000000     5.496000000
C    -4.736000000     0.830000000     3.874000000
O    -5.382000000    -0.031000000     4.625000000
C    -5.675000000    -1.288000000     4.171000000
C    -4.835000000    -2.342000000     4.379000000
H    -3.909000000    -2.088000000     4.887000000
C    -6.857000000    -1.521000000     3.511000000
H    -7.641000000    -0.770000000     3.446000000
C    -7.175000000    -2.800000000     3.051000000
H    -8.062000000    -3.105000000     2.502000000
C    -6.227000000    -3.818000000     3.088000000
H    -6.561000000    -4.692000000     2.534000000
C    -5.034000000    -3.575000000     3.752000000
O    -4.076000000    -4.505000000     3.890000000
C    -2.976000000    -4.557000000     3.004000000
C    -1.792000000    -5.120000000     3.451000000
H    -1.753000000    -5.449000000     4.486000000
C    -0.684000000    -5.225000000     2.670000000
O     0.253000000    -6.055000000     3.171000000
C     1.530000000    -6.108000000     2.591000000
C     2.318000000    -4.945000000     2.657000000
H     2.062000000    -4.133000000     3.333000000
C     1.996000000    -7.229000000     1.948000000
H     1.305000000    -8.066000000     1.897000000
C     3.228000000    -7.245000000     1.352000000
H     3.618000000    -8.171000000     0.937000000
C     3.968000000    -6.062000000     1.319000000
H     4.943000000    -6.088000000     0.840000000
C     3.492000000    -4.954000000     1.949000000
O     4.353000000    -3.887000000     2.006000000
C     4.807000000    -2.996000000     1.061000000
C     5.681000000    -2.018000000     1.391000000
H     6.188000000    -2.083000000     2.351000000
C     5.916000000    -0.956000000     0.557000000
O     7.055000000    -0.156000000     0.851000000
C     7.122000000     1.184000000     0.645000000
C     8.239000000     1.671000000    -0.008000000
H     9.021000000     1.113000000    -0.516000000
C     8.332000000     3.051000000    -0.225000000
H     9.187000000     3.404000000    -0.796000000
C     7.362000000     3.872000000     0.294000000
H     7.397000000     4.942000000     0.108000000
C     6.289000000     3.361000000     0.971000000
C     6.159000000     1.979000000     1.105000000
H     5.412000000     1.552000000     1.770000000
C     2.261000000    -1.150000000     2.457000000
H     2.710000000    -1.972000000     3.008000000
C     1.350000000    -1.360000000     1.410000000
H     1.133000000    -2.378000000     1.098000000
C     0.632000000    -0.243000000     0.878000000
H    -0.157000000    -0.391000000     0.104000000
C     1.078000000     1.026000000     1.229000000
H     0.579000000     1.860000000     0.743000000
C     2.090000000     1.257000000     2.121000000
H     2.431000000     2.227000000     2.472000000
C     2.663000000     0.176000000     2.747000000
C     3.807000000     0.318000000     3.863000000
O     4.225000000     1.425000000     4.155000000
O     4.244000000    -0.655000000     4.425000000
O     8.158000000    -3.411000000     2.277000000
H     8.528000000    -2.536000000     2.161000000
H     7.745000000    -3.384000000     3.140000000
O     4.646000000     0.149000000     7.395000000
H     3.931000000     0.314000000     6.781000000
H     4.590000000    -0.789000000     7.582000000
O     6.294000000     3.690000000     7.636000000
H     6.065000000     3.748000000     6.709000000
H     6.013000000     4.528000000     8.005000000
O     2.596000000    -4.857000000     6.309000000
H     2.181000000    -4.993000000     7.161000000
H     2.943000000    -5.717000000     6.071000000
O     5.229000000    -2.650000000     7.947000000
H     4.501000000    -3.098000000     7.517000000
H     5.394000000    -3.166000000     8.737000000
O     2.903000000    -2.050000000     6.269000000
H     3.405000000    -1.890000000     5.471000000
H     2.786000000    -3.000000000     6.292000000
O     1.443000000     0.301000000     6.748000000
H     2.183000000    -0.298000000     6.851000000
H     1.095000000     0.102000000     5.878000000
O     2.173000000     2.715000000     5.544000000
H     2.018000000     1.835000000     5.889000000
H     2.939000000     2.619000000     4.978000000
O     5.914000000    -4.566000000     4.317000000
H     5.848000000    -4.550000000     3.362000000
H     5.023000000    -4.395000000     4.621000000
O     6.927000000     1.326000000     8.688000000
H     6.383000000     0.632000000     8.315000000
H     6.793000000     2.074000000     8.107000000
O     9.559000000    -0.888000000     2.264000000
H     9.036000000    -0.460000000     1.586000000
H     9.700000000    -0.208000000     2.923000000
O     5.409000000     3.847000000     4.829000000
H     5.735000000     4.014000000     3.945000000
H     5.191000000     2.915000000     4.831000000
O     0.179000000     0.022000000     4.357000000
H    -0.409000000     0.729000000     4.091000000
H     0.439000000    -0.395000000     3.535000000
O     2.044000000     4.441000000     7.722000000
H     2.098000000     3.732000000     7.081000000
H     1.744000000     5.197000000     7.218000000
O     7.065000000    -1.391000000     4.671000000
H     6.176000000    -1.119000000     4.443000000
H     6.961000000    -1.902000000     5.474000000
O     6.723000000     1.229000000     5.303000000
H     5.795000000     1.073000000     5.127000000
H     7.133000000     0.369000000     5.205000000
O    -1.507000000    -1.531000000     5.854000000
H    -0.862000000    -1.844000000     6.489000000
H    -0.984000000    -1.227000000     5.112000000
O     8.503000000     3.326000000     5.403000000
H     8.998000000     3.279000000     6.220000000
H     7.865000000     2.616000000     5.468000000
O     2.220000000     1.263000000     9.507000000
H     3.067000000     1.699000000     9.410000000
H     1.965000000     1.035000000     8.613000000
