215
-1453.66439
C    -4.717000000     0.104000000     2.163000000
H    -5.278000000    -0.666000000     1.641000000
C    -4.175000000     1.180000000     1.468000000
C    -3.790000000     2.339000000     2.151000000
H    -3.124000000     3.114000000     1.780000000
C    -3.892000000     1.061000000    -0.042000000
O    -4.751000000     0.106000000    -0.663000000
H    -2.850000000     0.733000000    -0.174000000
O    -4.060000000     2.283000000    -0.692000000
C    -3.230000000     2.641000000    -1.742000000
C    -2.317000000     3.579000000    -1.391000000
H    -2.379000000     4.007000000    -0.394000000
C    -1.202000000     3.839000000    -2.192000000
O    -0.160000000     4.678000000    -1.798000000
C    -1.081000000     3.109000000    -3.418000000
C     0.073000000     3.455000000    -4.341000000
H    -0.283000000     3.413000000    -5.373000000
C     1.304000000     2.571000000    -4.102000000
C     1.423000000     1.287000000    -4.737000000
H     0.721000000     0.917000000    -5.480000000
H     0.217000000     4.513000000    -4.113000000
C    -2.097000000     2.253000000    -3.846000000
H    -2.033000000     1.714000000    -4.787000000
C    -3.254000000     2.038000000    -2.998000000
C    -4.272000000     0.983000000    -3.356000000
H    -4.388000000     1.010000000    -4.442000000
H    -5.244000000     1.266000000    -2.948000000
C    -3.890000000    -0.476000000    -2.841000000
C    -3.221000000    -1.425000000    -3.670000000
H    -2.972000000    -1.091000000    -4.673000000
C    -4.273000000    -0.852000000    -1.504000000
C    -3.926000000    -2.075000000    -1.002000000
H    -4.171000000    -2.376000000     0.013000000
C    -3.283000000    -2.993000000    -1.828000000
O    -2.755000000    -4.088000000    -1.202000000
C    -1.460000000    -3.962000000    -0.758000000
C    -1.344000000    -4.498000000     0.670000000
C    -0.105000000    -5.019000000     1.085000000
H     0.726000000    -5.126000000     0.393000000
C    -2.443000000    -4.365000000     1.594000000
H    -3.400000000    -4.052000000     1.187000000
O    -0.472000000    -4.683000000    -1.577000000
H    -1.085000000    -2.929000000    -0.721000000
C    -2.840000000    -2.615000000    -3.099000000
C    -1.935000000    -3.535000000    -3.883000000
H    -2.268000000    -3.431000000    -4.918000000
H    -2.099000000    -4.556000000    -3.533000000
C    -0.460000000    -3.242000000    -3.518000000
C     0.170000000    -2.285000000    -4.246000000
H    -0.240000000    -1.837000000    -5.148000000
C     0.269000000    -3.924000000    -2.493000000
C     1.568000000    -3.640000000    -2.199000000
H     2.090000000    -4.097000000    -1.362000000
C     2.253000000    -2.716000000    -3.005000000
O     3.530000000    -2.413000000    -2.646000000
C     3.718000000    -1.105000000    -2.005000000
C     4.619000000    -1.257000000    -0.769000000
C     4.735000000    -2.493000000    -0.120000000
H     4.180000000    -3.344000000    -0.507000000
C     5.294000000    -0.145000000    -0.155000000
H     5.257000000     0.808000000    -0.678000000
O     4.309000000    -0.132000000    -2.891000000
H     2.742000000    -0.749000000    -1.641000000
C     1.577000000    -2.018000000    -3.994000000
C     2.377000000    -0.984000000    -4.864000000
H     2.168000000    -1.049000000    -5.934000000
H     3.423000000    -1.295000000    -4.911000000
C     2.459000000     0.419000000    -4.389000000
C     3.373000000     0.739000000    -3.386000000
C     3.219000000     1.999000000    -2.754000000
H     3.782000000     2.127000000    -1.833000000
C     2.238000000     2.887000000    -3.098000000
O     2.024000000     3.993000000    -2.353000000
C     0.981000000     3.958000000    -1.308000000
H     0.814000000     2.872000000    -1.268000000
C     1.410000000     4.495000000     0.040000000
C     0.440000000     5.121000000     0.853000000
H    -0.573000000     5.174000000     0.463000000
C     2.734000000     4.440000000     0.474000000
H     3.481000000     3.988000000    -0.173000000
C     3.092000000     5.141000000     1.672000000
O     4.345000000     4.995000000     2.212000000
C     2.120000000     5.749000000     2.411000000
H     2.419000000     6.221000000     3.344000000
C     0.821000000     5.773000000     2.006000000
O    -0.035000000     6.561000000     2.706000000
C    -1.334000000     6.238000000     3.189000000
C    -1.722000000     5.004000000     3.687000000
H    -0.957000000     4.251000000     3.863000000
C    -2.278000000     7.231000000     2.883000000
H    -1.982000000     8.152000000     2.388000000
C    -3.672000000     6.915000000     3.059000000
H    -4.340000000     7.755000000     2.888000000
C    -4.064000000     5.681000000     3.531000000
H    -5.128000000     5.466000000     3.589000000
C    -3.111000000     4.720000000     3.869000000
O    -3.446000000     3.461000000     4.275000000
C    -3.927000000     2.405000000     3.560000000
C    -4.408000000     1.296000000     4.201000000
H    -4.434000000     1.361000000     5.286000000
C    -4.841000000     0.172000000     3.554000000
O    -5.567000000    -0.780000000     4.222000000
C    -5.560000000    -2.129000000     3.757000000
C    -4.411000000    -2.888000000     3.866000000
H    -3.512000000    -2.450000000     4.291000000
C    -6.748000000    -2.659000000     3.301000000
H    -7.665000000    -2.086000000     3.415000000
C    -6.698000000    -3.981000000     2.989000000
H    -7.651000000    -4.431000000     2.726000000
C    -5.576000000    -4.794000000     3.022000000
H    -5.611000000    -5.823000000     2.674000000
C    -4.429000000    -4.214000000     3.508000000
O    -3.342000000    -4.971000000     3.735000000
C    -2.258000000    -4.879000000     2.893000000
C    -0.998000000    -5.304000000     3.289000000
H    -0.880000000    -5.661000000     4.309000000
C     0.078000000    -5.391000000     2.400000000
O     1.334000000    -5.611000000     2.912000000
C     2.485000000    -5.713000000     2.198000000
C     3.440000000    -4.717000000     2.280000000
H     3.320000000    -3.892000000     2.977000000
C     2.723000000    -6.725000000     1.276000000
H     2.018000000    -7.526000000     1.071000000
C     3.908000000    -6.861000000     0.615000000
H     4.053000000    -7.732000000    -0.019000000
C     4.951000000    -5.946000000     0.839000000
H     5.916000000    -6.072000000     0.353000000
C     4.643000000    -4.804000000     1.602000000
O     5.644000000    -3.841000000     1.717000000
C     5.546000000    -2.612000000     1.003000000
C     6.229000000    -1.531000000     1.542000000
H     6.889000000    -1.533000000     2.406000000
C     6.101000000    -0.292000000     0.921000000
O     6.605000000     0.778000000     1.659000000
C     6.406000000     2.075000000     1.340000000
C     7.169000000     2.572000000     0.296000000
H     8.040000000     2.085000000    -0.134000000
C     7.012000000     3.861000000    -0.052000000
H     7.715000000     4.360000000    -0.714000000
C     6.025000000     4.675000000     0.569000000
H     5.933000000     5.746000000     0.408000000
C     5.232000000     4.171000000     1.559000000
C     5.478000000     2.845000000     1.941000000
H     4.917000000     2.415000000     2.766000000
C     1.921000000    -0.895000000     1.894000000
H     2.501000000    -1.516000000     2.573000000
C     1.408000000    -1.538000000     0.788000000
H     1.697000000    -2.563000000     0.576000000
C     0.631000000    -0.873000000    -0.107000000
H     0.248000000    -1.384000000    -0.938000000
C     0.423000000     0.503000000    -0.003000000
H    -0.135000000     1.066000000    -0.746000000
C     1.015000000     1.178000000     1.105000000
H     0.914000000     2.258000000     1.175000000
C     1.701000000     0.476000000     2.092000000
C     2.408000000     1.215000000     3.214000000
O     2.090000000     2.381000000     3.469000000
O     3.008000000     0.475000000     3.957000000
O     4.670000000     0.896000000     8.408000000
H     3.844000000     0.949000000     7.928000000
H     5.345000000     0.924000000     7.729000000
O     5.051000000    -3.813000000     5.169000000
H     5.555000000    -3.558000000     5.942000000
H     4.544000000    -4.573000000     5.454000000
O     7.533000000    -1.900000000     5.243000000
H     6.743000000    -1.499000000     4.881000000
H     7.516000000    -1.669000000     6.172000000
O     5.032000000    -1.184000000     4.640000000
H     4.295000000    -0.687000000     4.284000000
H     4.684000000    -2.065000000     4.774000000
O     2.685000000     0.180000000     6.653000000
H     2.894000000    -0.036000000     5.745000000
H     2.763000000    -0.651000000     7.122000000
O     1.028000000     2.524000000     5.959000000
H     1.329000000     2.546000000     5.051000000
H     1.422000000     1.732000000     6.323000000
O    -1.380000000     1.367000000     7.615000000
H    -0.921000000     2.161000000     7.341000000
H    -1.046000000     1.188000000     8.495000000
O     3.871000000     3.696000000     5.159000000
H     4.030000000     4.208000000     4.366000000
H     3.227000000     3.039000000     4.895000000
O    -0.122000000    -1.374000000     7.436000000
H     0.739000000    -1.459000000     7.846000000
H    -0.103000000    -0.514000000     7.016000000
O    -1.803000000    -1.089000000     2.631000000
H    -2.018000000    -0.269000000     3.075000000
H    -0.885000000    -0.991000000     2.378000000
O     0.693000000     4.986000000     6.785000000
H     0.923000000     4.129000000     6.425000000
H     1.524000000     5.457000000     6.831000000
O     9.199000000     2.026000000     3.072000000
H     8.651000000     2.214000000     3.833000000
H     9.151000000     2.821000000     2.540000000
O     2.466000000    -1.798000000     8.358000000
H     2.601000000    -1.663000000     9.296000000
H     2.687000000    -2.719000000     8.215000000
O     2.608000000     3.919000000     9.995000000
H     3.014000000     3.053000000    10.030000000
H     2.792000000     4.235000000     9.111000000
O     5.947000000     1.955000000     5.794000000
H     5.432000000     1.370000000     5.238000000
H     5.353000000     2.677000000     5.997000000
O     4.112000000     4.441000000     7.797000000
H     3.843000000     5.359000000     7.833000000
H     4.036000000     4.206000000     6.872000000
O     8.282000000     3.318000000     5.342000000
H     7.882000000     4.048000000     4.870000000
H     7.576000000     2.678000000     5.436000000
O    -0.670000000    -3.987000000     7.508000000
H    -0.486000000    -3.072000000     7.295000000
H    -1.576000000    -4.120000000     7.230000000
O     5.824000000     6.943000000     3.746000000
H     6.138000000     7.846000000     3.695000000
H     5.589000000     6.719000000     2.846000000
