215
-1463.25885
C    -4.838000000     0.199000000     2.377000000
H    -5.018000000    -0.748000000     1.874000000
C    -4.340000000     1.301000000     1.664000000
C    -4.081000000     2.465000000     2.395000000
H    -3.609000000     3.313000000     1.905000000
C    -4.101000000     1.114000000     0.200000000
O    -4.842000000     0.039000000    -0.374000000
H    -3.032000000     0.895000000     0.066000000
O    -4.300000000     2.288000000    -0.590000000
C    -3.326000000     2.624000000    -1.500000000
C    -2.417000000     3.636000000    -1.155000000
H    -2.473000000     4.089000000    -0.169000000
C    -1.468000000     3.994000000    -2.113000000
O    -0.488000000     4.860000000    -1.699000000
C    -1.493000000     3.417000000    -3.367000000
C    -0.396000000     3.694000000    -4.386000000
H    -0.810000000     3.342000000    -5.333000000
C     0.857000000     2.886000000    -3.990000000
C     0.879000000     1.519000000    -4.488000000
H     0.041000000     1.101000000    -5.040000000
H    -0.157000000     4.755000000    -4.487000000
C    -2.427000000     2.408000000    -3.706000000
H    -2.403000000     1.902000000    -4.668000000
C    -3.335000000     2.018000000    -2.750000000
C    -4.328000000     0.911000000    -3.086000000
H    -4.570000000     0.889000000    -4.151000000
H    -5.292000000     1.165000000    -2.640000000
C    -3.961000000    -0.462000000    -2.550000000
C    -3.390000000    -1.363000000    -3.488000000
H    -3.007000000    -1.069000000    -4.462000000
C    -4.340000000    -0.845000000    -1.294000000
C    -3.929000000    -2.162000000    -0.863000000
H    -4.280000000    -2.400000000     0.138000000
C    -3.207000000    -3.045000000    -1.702000000
O    -2.723000000    -4.149000000    -1.096000000
C    -1.364000000    -4.041000000    -0.722000000
C    -1.045000000    -4.590000000     0.667000000
C     0.097000000    -5.231000000     0.899000000
H     0.810000000    -5.431000000     0.103000000
C    -1.894000000    -4.354000000     1.763000000
H    -2.732000000    -3.682000000     1.598000000
O    -0.597000000    -4.693000000    -1.731000000
H    -1.173000000    -2.961000000    -0.631000000
C    -3.004000000    -2.648000000    -3.010000000
C    -2.116000000    -3.431000000    -3.953000000
H    -2.328000000    -3.065000000    -4.960000000
H    -2.368000000    -4.492000000    -3.904000000
C    -0.649000000    -3.244000000    -3.612000000
C    -0.005000000    -2.179000000    -4.296000000
H    -0.592000000    -1.767000000    -5.113000000
C     0.047000000    -3.850000000    -2.548000000
C     1.375000000    -3.393000000    -2.234000000
H     1.869000000    -3.830000000    -1.371000000
C     1.973000000    -2.425000000    -2.981000000
O     3.280000000    -2.157000000    -2.666000000
C     3.492000000    -0.934000000    -1.830000000
C     4.568000000    -1.139000000    -0.806000000
C     4.647000000    -2.340000000    -0.169000000
H     4.011000000    -3.151000000    -0.514000000
C     5.369000000    -0.116000000    -0.370000000
H     5.286000000     0.851000000    -0.859000000
O     3.768000000     0.190000000    -2.709000000
H     2.608000000    -0.673000000    -1.230000000
C     1.313000000    -1.836000000    -4.042000000
C     2.025000000    -0.685000000    -4.829000000
H     1.531000000    -0.641000000    -5.802000000
H     3.051000000    -0.955000000    -5.088000000
C     1.863000000     0.657000000    -4.110000000
C     2.791000000     1.064000000    -3.169000000
C     2.734000000     2.334000000    -2.631000000
H     3.382000000     2.606000000    -1.802000000
C     1.844000000     3.319000000    -3.112000000
O     1.652000000     4.418000000    -2.394000000
C     0.731000000     4.197000000    -1.344000000
H     0.490000000     3.127000000    -1.265000000
C     1.252000000     4.624000000    -0.010000000
C     0.363000000     4.920000000     1.045000000
H    -0.717000000     4.953000000     0.927000000
C     2.594000000     4.419000000     0.293000000
H     3.252000000     4.021000000    -0.476000000
C     3.142000000     4.666000000     1.556000000
O     4.495000000     4.637000000     1.809000000
C     2.251000000     4.939000000     2.611000000
H     2.515000000     5.245000000     3.619000000
C     0.889000000     5.133000000     2.324000000
O     0.146000000     5.456000000     3.447000000
C    -1.205000000     5.563000000     3.337000000
C    -1.967000000     4.547000000     3.898000000
H    -1.434000000     3.679000000     4.277000000
C    -1.759000000     6.718000000     2.715000000
H    -1.292000000     7.590000000     2.265000000
C    -3.149000000     6.777000000     2.732000000
H    -3.741000000     7.600000000     2.342000000
C    -3.931000000     5.753000000     3.304000000
H    -5.018000000     5.788000000     3.313000000
C    -3.353000000     4.666000000     3.880000000
O    -4.122000000     3.679000000     4.398000000
C    -4.414000000     2.597000000     3.704000000
C    -4.824000000     1.502000000     4.409000000
H    -5.096000000     1.607000000     5.456000000
C    -5.071000000     0.311000000     3.746000000
O    -5.663000000    -0.780000000     4.507000000
C    -5.317000000    -2.071000000     4.166000000
C    -4.068000000    -2.577000000     4.368000000
H    -3.338000000    -1.857000000     4.729000000
C    -6.307000000    -2.904000000     3.601000000
H    -7.351000000    -2.645000000     3.444000000
C    -6.022000000    -4.174000000     3.199000000
H    -6.830000000    -4.764000000     2.773000000
C    -4.734000000    -4.672000000     3.513000000
H    -4.503000000    -5.688000000     3.202000000
C    -3.752000000    -3.855000000     4.028000000
O    -2.477000000    -4.360000000     4.095000000
C    -1.693000000    -4.838000000     3.064000000
C    -0.430000000    -5.457000000     3.319000000
H    -0.026000000    -5.729000000     4.291000000
C     0.472000000    -5.589000000     2.243000000
O     1.716000000    -6.100000000     2.554000000
C     2.914000000    -6.044000000     1.921000000
C     3.780000000    -4.971000000     2.089000000
H     3.437000000    -4.166000000     2.735000000
C     3.195000000    -7.116000000     1.055000000
H     2.554000000    -7.971000000     0.857000000
C     4.418000000    -7.060000000     0.393000000
H     4.799000000    -7.902000000    -0.178000000
C     5.301000000    -6.010000000     0.528000000
H     6.220000000    -5.988000000    -0.053000000
C     4.901000000    -4.879000000     1.290000000
O     5.707000000    -3.754000000     1.469000000
C     5.629000000    -2.548000000     0.817000000
C     6.488000000    -1.497000000     1.203000000
H     7.398000000    -1.656000000     1.776000000
C     6.337000000    -0.223000000     0.625000000
O     7.069000000     0.784000000     1.164000000
C     6.734000000     2.057000000     0.776000000
C     7.189000000     2.655000000    -0.405000000
H     7.898000000     2.078000000    -0.994000000
C     6.810000000     3.922000000    -0.845000000
H     7.323000000     4.327000000    -1.714000000
C     5.949000000     4.634000000    -0.052000000
H     5.650000000     5.655000000    -0.277000000
C     5.414000000     3.964000000     1.058000000
C     5.814000000     2.701000000     1.544000000
H     5.470000000     2.230000000     2.461000000
C     1.383000000    -1.273000000     2.036000000
H     1.830000000    -2.059000000     2.639000000
C     0.798000000    -1.494000000     0.796000000
H     0.903000000    -2.489000000     0.371000000
C     0.219000000    -0.528000000     0.094000000
H    -0.290000000    -0.648000000    -0.863000000
C     0.074000000     0.760000000     0.627000000
H    -0.611000000     1.458000000     0.151000000
C     0.585000000     0.941000000     1.897000000
H     0.378000000     1.887000000     2.391000000
C     1.280000000    -0.025000000     2.610000000
C     1.653000000     0.169000000     4.099000000
O     1.191000000     1.081000000     4.720000000
O     2.300000000    -0.725000000     4.642000000
O    -1.827000000     5.148000000     7.033000000
H    -2.130000000     4.295000000     7.345000000
H    -0.946000000     4.981000000     6.697000000
O     7.416000000    -1.810000000     4.789000000
H     7.142000000    -2.399000000     5.492000000
H     6.618000000    -1.649000000     4.286000000
O     4.598000000    -1.157000000     3.497000000
H     3.785000000    -0.993000000     3.976000000
H     4.322000000    -1.270000000     2.588000000
O     2.311000000     2.566000000     8.765000000
H     1.720000000     1.818000000     8.679000000
H     2.466000000     2.854000000     7.866000000
O    -2.167000000    -0.396000000     9.721000000
H    -1.999000000    -0.612000000    10.638000000
H    -1.524000000    -0.909000000     9.232000000
O     0.547000000     0.994000000     7.272000000
H     0.915000000     0.945000000     6.390000000
H     0.329000000     1.919000000     7.390000000
O     3.758000000    -0.702000000     7.021000000
H     3.198000000    -0.986000000     6.299000000
H     4.172000000     0.100000000     6.703000000
O     2.940000000     2.821000000     5.598000000
H     3.697000000     2.307000000     5.315000000
H     2.210000000     2.201000000     5.580000000
O     0.675000000    -2.465000000     5.700000000
H    -0.164000000    -2.028000000     5.557000000
H     1.331000000    -1.799000000     5.494000000
O    -1.144000000    -0.495000000     5.236000000
H    -0.460000000     0.170000000     5.158000000
H    -1.806000000    -0.094000000     5.799000000
O     0.527000000     3.919000000     6.385000000
H     0.866000000     3.554000000     5.568000000
H     1.164000000     4.590000000     6.630000000
O     4.570000000    -0.580000000     9.572000000
H     4.153000000    -0.776000000     8.733000000
H     5.146000000     0.162000000     9.386000000
O    -0.270000000    -1.896000000     8.006000000
H     0.155000000    -1.062000000     7.807000000
H     0.099000000    -2.510000000     7.370000000
O    -2.980000000    -2.856000000     8.012000000
H    -3.634000000    -2.206000000     7.757000000
H    -2.145000000    -2.392000000     7.955000000
O     5.396000000     0.821000000     5.291000000
H     5.436000000     0.073000000     4.695000000
H     6.111000000     0.673000000     5.910000000
O     4.885000000     4.922000000     5.352000000
H     5.768000000     4.568000000     5.453000000
H     4.338000000     4.157000000     5.174000000
O    -2.761000000     0.422000000     7.188000000
H    -2.287000000     0.624000000     7.994000000
H    -3.383000000    -0.261000000     7.440000000
O     1.329000000    -4.854000000     6.795000000
H     0.383000000    -4.997000000     6.781000000
H     1.472000000    -4.130000000     6.186000000
O     2.803000000     6.137000000     6.718000000
H     2.452000000     6.874000000     6.219000000
H     3.573000000     5.858000000     6.223000000
