215
-1478.04705
C    -5.146000000     0.095000000     1.743000000
H    -5.417000000    -0.802000000     1.193000000
C    -4.511000000     1.142000000     0.996000000
C    -4.173000000     2.296000000     1.740000000
H    -3.571000000     3.012000000     1.187000000
C    -4.052000000     1.014000000    -0.477000000
O    -4.724000000    -0.056000000    -1.058000000
H    -3.014000000     0.650000000    -0.499000000
O    -4.199000000     2.156000000    -1.241000000
C    -3.198000000     2.432000000    -2.166000000
C    -2.313000000     3.356000000    -1.692000000
H    -2.469000000     3.774000000    -0.701000000
C    -1.239000000     3.726000000    -2.425000000
O    -0.408000000     4.610000000    -1.883000000
C    -1.066000000     3.106000000    -3.658000000
C     0.239000000     3.367000000    -4.462000000
H     0.019000000     3.015000000    -5.472000000
C     1.460000000     2.596000000    -3.966000000
C     1.682000000     1.295000000    -4.444000000
H     1.041000000     0.923000000    -5.239000000
H     0.461000000     4.436000000    -4.493000000
C    -1.946000000     2.156000000    -4.162000000
H    -1.738000000     1.671000000    -5.113000000
C    -3.048000000     1.775000000    -3.345000000
C    -3.978000000     0.682000000    -3.857000000
H    -3.975000000     0.681000000    -4.949000000
H    -4.999000000     0.917000000    -3.550000000
C    -3.644000000    -0.659000000    -3.201000000
C    -2.842000000    -1.580000000    -3.927000000
H    -2.479000000    -1.263000000    -4.901000000
C    -4.083000000    -0.950000000    -1.849000000
C    -3.648000000    -2.145000000    -1.283000000
H    -3.965000000    -2.425000000    -0.281000000
C    -2.804000000    -3.023000000    -2.038000000
O    -2.362000000    -4.084000000    -1.291000000
C    -1.035000000    -4.017000000    -0.876000000
C    -0.907000000    -4.569000000     0.494000000
C     0.166000000    -5.324000000     0.932000000
H     0.961000000    -5.592000000     0.242000000
C    -1.876000000    -4.216000000     1.396000000
H    -2.630000000    -3.498000000     1.082000000
O    -0.075000000    -4.646000000    -1.721000000
H    -0.679000000    -2.988000000    -0.720000000
C    -2.344000000    -2.692000000    -3.324000000
C    -1.282000000    -3.489000000    -4.059000000
H    -1.391000000    -3.273000000    -5.123000000
H    -1.477000000    -4.563000000    -4.026000000
C     0.121000000    -3.119000000    -3.502000000
C     0.852000000    -2.126000000    -4.191000000
H     0.367000000    -1.636000000    -5.031000000
C     0.704000000    -3.814000000    -2.500000000
C     1.984000000    -3.531000000    -2.091000000
H     2.308000000    -4.147000000    -1.256000000
C     2.717000000    -2.477000000    -2.691000000
O     3.927000000    -2.091000000    -2.288000000
C     3.898000000    -0.868000000    -1.463000000
C     4.585000000    -1.147000000    -0.127000000
C     4.732000000    -2.430000000     0.385000000
H     4.311000000    -3.304000000    -0.105000000
C     4.881000000    -0.054000000     0.744000000
H     4.653000000     0.966000000     0.445000000
O     4.469000000     0.200000000    -2.243000000
H     2.836000000    -0.631000000    -1.298000000
C     2.165000000    -1.845000000    -3.803000000
C     2.955000000    -0.804000000    -4.569000000
H     2.723000000    -0.790000000    -5.635000000
H     4.025000000    -1.007000000    -4.483000000
C     2.771000000     0.538000000    -4.017000000
C     3.562000000     1.006000000    -2.974000000
C     3.273000000     2.283000000    -2.458000000
H     3.853000000     2.709000000    -1.644000000
C     2.229000000     3.089000000    -2.873000000
O     1.908000000     4.159000000    -2.140000000
C     0.768000000     4.090000000    -1.270000000
H     0.752000000     3.022000000    -1.009000000
C     1.200000000     4.893000000    -0.027000000
C     0.145000000     5.444000000     0.687000000
H    -0.840000000     5.608000000     0.257000000
C     2.428000000     4.658000000     0.642000000
H     3.204000000     4.084000000     0.143000000
C     2.593000000     5.169000000     1.935000000
O     3.776000000     5.081000000     2.611000000
C     1.539000000     5.888000000     2.596000000
H     1.774000000     6.399000000     3.527000000
C     0.288000000     5.925000000     1.984000000
O    -0.713000000     6.685000000     2.618000000
C    -2.011000000     6.268000000     2.551000000
C    -2.320000000     5.052000000     3.167000000
H    -1.545000000     4.443000000     3.626000000
C    -2.994000000     7.143000000     2.159000000
H    -2.695000000     8.116000000     1.778000000
C    -4.350000000     6.859000000     2.297000000
H    -5.178000000     7.516000000     2.045000000
C    -4.698000000     5.536000000     2.866000000
H    -5.766000000     5.354000000     2.952000000
C    -3.708000000     4.689000000     3.293000000
O    -3.937000000     3.456000000     3.770000000
C    -4.505000000     2.433000000     3.076000000
C    -5.266000000     1.487000000     3.791000000
H    -5.555000000     1.540000000     4.838000000
C    -5.434000000     0.284000000     3.092000000
O    -5.919000000    -0.747000000     3.854000000
C    -5.754000000    -2.090000000     3.536000000
C    -4.524000000    -2.696000000     3.893000000
H    -3.855000000    -2.203000000     4.594000000
C    -6.604000000    -2.696000000     2.635000000
H    -7.457000000    -2.114000000     2.295000000
C    -6.264000000    -3.976000000     2.176000000
H    -6.926000000    -4.475000000     1.473000000
C    -5.054000000    -4.557000000     2.532000000
H    -4.755000000    -5.524000000     2.133000000
C    -4.175000000    -3.908000000     3.402000000
O    -2.904000000    -4.474000000     3.682000000
C    -1.876000000    -4.697000000     2.758000000
C    -0.740000000    -5.447000000     3.185000000
H    -0.763000000    -5.846000000     4.196000000
C     0.288000000    -5.809000000     2.278000000
O     1.400000000    -6.409000000     2.733000000
C     2.648000000    -6.194000000     2.094000000
C     3.368000000    -5.042000000     2.302000000
H     2.883000000    -4.329000000     2.964000000
C     3.199000000    -7.242000000     1.317000000
H     2.552000000    -8.108000000     1.207000000
C     4.462000000    -7.140000000     0.770000000
H     4.837000000    -7.951000000     0.151000000
C     5.236000000    -6.058000000     1.159000000
H     6.270000000    -6.003000000     0.826000000
C     4.654000000    -4.964000000     1.814000000
O     5.474000000    -3.919000000     2.220000000
C     5.304000000    -2.646000000     1.671000000
C     5.837000000    -1.552000000     2.346000000
H     6.408000000    -1.723000000     3.255000000
C     5.537000000    -0.270000000     1.938000000
O     5.922000000     0.733000000     2.759000000
C     5.811000000     2.046000000     2.356000000
C     6.836000000     2.498000000     1.525000000
H     7.577000000     1.752000000     1.253000000
C     6.905000000     3.895000000     1.173000000
H     7.705000000     4.361000000     0.602000000
C     5.936000000     4.748000000     1.622000000
H     5.977000000     5.800000000     1.356000000
C     4.793000000     4.262000000     2.256000000
C     4.745000000     2.894000000     2.626000000
H     3.982000000     2.556000000     3.323000000
C     1.433000000    -0.676000000     1.824000000
H     1.992000000    -1.454000000     2.337000000
C     1.088000000    -0.954000000     0.513000000
H     1.264000000    -1.922000000     0.052000000
C     0.346000000    -0.018000000    -0.186000000
H     0.018000000    -0.168000000    -1.135000000
C    -0.055000000     1.200000000     0.435000000
H    -0.658000000     1.897000000    -0.143000000
C     0.347000000     1.467000000     1.711000000
H     0.013000000     2.383000000     2.191000000
C     1.095000000     0.535000000     2.432000000
C     1.540000000     0.771000000     3.813000000
O     1.274000000     1.829000000     4.323000000
O     2.030000000    -0.143000000     4.486000000
O    -1.065000000     6.109000000     6.357000000
H    -1.706000000     5.511000000     6.741000000
H    -0.376000000     5.536000000     6.020000000
O     3.662000000    -2.182000000     4.836000000
H     3.193000000    -1.397000000     4.551000000
H     3.031000000    -2.892000000     4.724000000
O     0.814000000     3.393000000     8.188000000
H     1.551000000     2.892000000     8.538000000
H     1.072000000     3.602000000     7.290000000
O     2.678000000     1.809000000     9.485000000
H     2.243000000     1.235000000     8.854000000
H     3.575000000     1.886000000     9.160000000
O     1.829000000    -0.195000000     7.472000000
H     1.927000000    -0.117000000     6.524000000
H     0.888000000    -0.311000000     7.608000000
O     4.262000000    -1.834000000     7.656000000
H     3.559000000    -1.197000000     7.526000000
H     4.710000000    -1.870000000     6.811000000
O     4.814000000     1.108000000     8.012000000
H     5.088000000     0.852000000     7.131000000
H     5.401000000     0.626000000     8.594000000
O    -2.542000000     3.835000000     6.594000000
H    -2.689000000     3.229000000     5.867000000
H    -2.042000000     3.328000000     7.232000000
O     2.929000000     2.566000000     6.396000000
H     3.528000000     1.872000000     6.673000000
H     2.475000000     2.201000000     5.637000000
O     0.169000000    -1.974000000     5.250000000
H    -0.611000000    -1.623000000     4.821000000
H     0.839000000    -1.303000000     5.114000000
O    -1.653000000    -0.388000000     3.905000000
H    -2.183000000     0.344000000     4.221000000
H    -1.448000000    -0.161000000     2.998000000
O     0.866000000     4.250000000     5.292000000
H     0.988000000     3.363000000     4.953000000
H     1.738000000     4.520000000     5.578000000
O    -0.627000000    -2.976000000     7.762000000
H    -0.539000000    -3.891000000     7.495000000
H    -0.598000000    -2.484000000     6.942000000
O     5.318000000     0.052000000     5.542000000
H     6.180000000    -0.363000000     5.582000000
H     4.790000000    -0.543000000     5.009000000
O     5.121000000     4.275000000     7.810000000
H     5.527000000     4.906000000     7.216000000
H     4.790000000     3.584000000     7.235000000
O    -3.040000000     0.864000000     6.115000000
H    -3.494000000     0.927000000     6.955000000
H    -2.294000000     0.290000000     6.288000000
O    -1.674000000     2.601000000     8.831000000
H    -0.762000000     2.852000000     8.685000000
H    -1.705000000     1.671000000     8.608000000
O     1.822000000    -4.185000000     5.249000000
H     1.470000000    -4.975000000     5.660000000
H     1.121000000    -3.539000000     5.335000000
O     5.636000000     5.452000000     5.115000000
H     5.554000000     6.163000000     4.479000000
H     4.864000000     4.905000000     4.964000000
