215
-1458.71981
C    -4.877000000     0.608000000     2.511000000
H    -5.177000000    -0.336000000     2.064000000
C    -4.313000000     1.590000000     1.718000000
C    -3.649000000     2.697000000     2.293000000
H    -2.933000000     3.296000000     1.736000000
C    -4.107000000     1.450000000     0.191000000
O    -5.008000000     0.452000000    -0.268000000
H    -3.065000000     1.159000000    -0.010000000
O    -4.283000000     2.678000000    -0.590000000
C    -3.474000000     2.817000000    -1.668000000
C    -2.419000000     3.725000000    -1.462000000
H    -2.438000000     4.411000000    -0.619000000
C    -1.397000000     3.824000000    -2.306000000
O    -0.250000000     4.529000000    -1.932000000
C    -1.432000000     3.115000000    -3.502000000
C    -0.271000000     3.138000000    -4.549000000
H    -0.712000000     2.929000000    -5.526000000
C     0.842000000     2.174000000    -4.235000000
C     0.915000000     0.905000000    -4.856000000
H     0.109000000     0.650000000    -5.539000000
H     0.129000000     4.152000000    -4.477000000
C    -2.500000000     2.281000000    -3.748000000
H    -2.541000000     1.871000000    -4.753000000
C    -3.575000000     2.134000000    -2.888000000
C    -4.622000000     1.058000000    -3.169000000
H    -4.633000000     1.019000000    -4.261000000
H    -5.626000000     1.394000000    -2.903000000
C    -4.383000000    -0.284000000    -2.547000000
C    -3.636000000    -1.218000000    -3.245000000
H    -3.402000000    -1.106000000    -4.301000000
C    -4.598000000    -0.532000000    -1.170000000
C    -4.324000000    -1.735000000    -0.601000000
H    -4.575000000    -1.955000000     0.434000000
C    -3.530000000    -2.593000000    -1.335000000
O    -3.000000000    -3.668000000    -0.623000000
C    -1.615000000    -3.629000000    -0.373000000
C    -1.386000000    -4.137000000     1.050000000
C    -0.186000000    -4.874000000     1.256000000
H     0.557000000    -4.985000000     0.470000000
C    -2.244000000    -3.904000000     2.093000000
H    -3.144000000    -3.304000000     1.988000000
O    -0.889000000    -4.541000000    -1.377000000
H    -1.213000000    -2.607000000    -0.431000000
C    -3.255000000    -2.407000000    -2.655000000
C    -2.426000000    -3.450000000    -3.450000000
H    -2.727000000    -3.420000000    -4.499000000
H    -2.756000000    -4.453000000    -3.172000000
C    -0.969000000    -3.248000000    -3.353000000
C    -0.225000000    -2.577000000    -4.314000000
H    -0.795000000    -2.247000000    -5.179000000
C    -0.254000000    -3.849000000    -2.302000000
C     1.108000000    -3.639000000    -2.189000000
H     1.646000000    -4.207000000    -1.434000000
C     1.831000000    -2.868000000    -3.098000000
O     3.214000000    -2.673000000    -2.970000000
C     3.611000000    -1.399000000    -2.415000000
C     4.579000000    -1.586000000    -1.244000000
C     4.564000000    -2.777000000    -0.425000000
H     3.878000000    -3.588000000    -0.657000000
C     5.541000000    -0.585000000    -1.064000000
H     5.588000000     0.284000000    -1.716000000
O     4.013000000    -0.476000000    -3.414000000
H     2.692000000    -1.012000000    -1.951000000
C     1.147000000    -2.340000000    -4.205000000
C     1.886000000    -1.352000000    -5.187000000
H     1.386000000    -1.228000000    -6.149000000
H     2.862000000    -1.755000000    -5.467000000
C     1.972000000     0.011000000    -4.589000000
C     3.032000000     0.427000000    -3.770000000
C     2.931000000     1.678000000    -3.158000000
H     3.630000000     2.007000000    -2.393000000
C     1.844000000     2.510000000    -3.385000000
O     1.850000000     3.653000000    -2.634000000
C     0.865000000     3.706000000    -1.495000000
H     0.450000000     2.694000000    -1.371000000
C     1.442000000     4.155000000    -0.135000000
C     0.746000000     5.128000000     0.637000000
H    -0.233000000     5.518000000     0.370000000
C     2.611000000     3.595000000     0.325000000
H     3.089000000     2.781000000    -0.214000000
C     3.184000000     4.137000000     1.461000000
O     4.393000000     3.558000000     1.947000000
C     2.583000000     5.158000000     2.180000000
H     3.034000000     5.609000000     3.060000000
C     1.396000000     5.677000000     1.733000000
O     0.793000000     6.538000000     2.553000000
C    -0.519000000     6.434000000     2.928000000
C    -1.029000000     5.204000000     3.301000000
H    -0.309000000     4.390000000     3.327000000
C    -1.377000000     7.538000000     2.894000000
H    -1.017000000     8.537000000     2.662000000
C    -2.792000000     7.459000000     3.185000000
H    -3.542000000     8.244000000     3.146000000
C    -3.212000000     6.173000000     3.619000000
H    -4.181000000     6.096000000     4.105000000
C    -2.373000000     5.069000000     3.658000000
O    -2.818000000     3.915000000     4.221000000
C    -3.596000000     2.899000000     3.660000000
C    -4.193000000     1.914000000     4.470000000
H    -4.243000000     1.957000000     5.555000000
C    -4.792000000     0.814000000     3.915000000
O    -5.324000000    -0.168000000     4.754000000
C    -5.272000000    -1.507000000     4.473000000
C    -4.013000000    -2.177000000     4.429000000
H    -3.082000000    -1.623000000     4.518000000
C    -6.411000000    -2.212000000     4.323000000
H    -7.383000000    -1.729000000     4.260000000
C    -6.359000000    -3.615000000     4.085000000
H    -7.250000000    -4.112000000     3.709000000
C    -5.151000000    -4.271000000     4.121000000
H    -5.109000000    -5.352000000     4.018000000
C    -3.975000000    -3.544000000     4.329000000
O    -2.837000000    -4.284000000     4.377000000
C    -1.985000000    -4.501000000     3.316000000
C    -0.847000000    -5.321000000     3.487000000
H    -0.693000000    -5.895000000     4.397000000
C     0.044000000    -5.507000000     2.416000000
O     1.151000000    -6.314000000     2.586000000
C     2.360000000    -6.144000000     1.984000000
C     3.137000000    -4.961000000     2.079000000
H     2.733000000    -4.101000000     2.609000000
C     2.846000000    -7.189000000     1.228000000
H     2.292000000    -8.105000000     1.039000000
C     4.125000000    -7.100000000     0.671000000
H     4.443000000    -7.939000000     0.058000000
C     4.875000000    -5.920000000     0.657000000
H     5.840000000    -5.750000000     0.188000000
C     4.425000000    -4.852000000     1.472000000
O     5.261000000    -3.812000000     1.651000000
C     5.381000000    -2.811000000     0.717000000
C     6.201000000    -1.719000000     0.963000000
H     6.850000000    -1.766000000     1.834000000
C     6.336000000    -0.647000000     0.047000000
O     7.267000000     0.327000000     0.264000000
C     7.016000000     1.674000000     0.309000000
C     7.763000000     2.683000000    -0.319000000
H     8.663000000     2.472000000    -0.892000000
C     7.277000000     4.005000000    -0.265000000
H     7.871000000     4.797000000    -0.712000000
C     6.170000000     4.295000000     0.573000000
H     5.856000000     5.321000000     0.752000000
C     5.447000000     3.274000000     1.150000000
C     5.810000000     1.965000000     0.986000000
H     5.344000000     1.212000000     1.616000000
C     2.017000000    -1.028000000     1.780000000
H     2.934000000    -1.594000000     1.924000000
C     1.319000000    -0.992000000     0.544000000
H     1.567000000    -1.707000000    -0.237000000
C     0.464000000     0.054000000     0.270000000
H    -0.028000000     0.167000000    -0.666000000
C     0.182000000     1.035000000     1.218000000
H    -0.469000000     1.889000000     1.049000000
C     0.737000000     0.940000000     2.425000000
H     0.555000000     1.653000000     3.225000000
C     1.641000000    -0.100000000     2.730000000
C     1.921000000    -0.308000000     4.191000000
O     1.392000000     0.407000000     4.988000000
O     2.722000000    -1.198000000     4.487000000
O     7.952000000    -1.769000000     5.577000000
H     7.558000000    -2.150000000     6.362000000
H     7.206000000    -1.501000000     5.041000000
O     5.303000000    -1.770000000     4.398000000
H     4.424000000    -1.400000000     4.477000000
H     5.157000000    -2.700000000     4.225000000
O     3.194000000     3.216000000     8.541000000
H     2.540000000     2.985000000     9.201000000
H     3.391000000     2.390000000     8.100000000
O     1.248000000     1.017000000     7.598000000
H     1.809000000     0.243000000     7.660000000
H     1.194000000     1.199000000     6.660000000
O     3.556000000    -1.456000000     7.066000000
H     3.821000000    -2.375000000     7.037000000
H     3.259000000    -1.264000000     6.177000000
O    -1.746000000     3.477000000     7.174000000
H    -1.986000000     3.340000000     6.257000000
H    -1.196000000     2.724000000     7.392000000
O     2.364000000     2.961000000     5.219000000
H     3.274000000     2.741000000     5.421000000
H     1.954000000     2.120000000     5.016000000
O     1.512000000    -3.444000000     5.264000000
H     0.664000000    -3.140000000     5.588000000
H     1.959000000    -2.647000000     4.978000000
O    -1.027000000    -1.967000000     5.793000000
H    -1.083000000    -1.877000000     4.842000000
H    -1.410000000    -1.159000000     6.134000000
O     1.585000000     4.978000000     6.965000000
H     1.742000000     4.394000000     6.223000000
H     2.148000000     4.639000000     7.660000000
O     4.324000000    -1.682000000     9.944000000
H     3.979000000    -1.508000000     9.069000000
H     5.036000000    -1.052000000    10.050000000
O     0.484000000    -2.834000000     8.059000000
H     0.002000000    -2.419000000     7.344000000
H     1.252000000    -3.220000000     7.638000000
O    -1.833000000    -5.056000000     6.900000000
H    -2.720000000    -5.347000000     6.690000000
H    -1.697000000    -4.285000000     6.350000000
O     4.314000000     1.253000000     6.677000000
H     5.218000000     1.427000000     6.938000000
H     4.249000000     0.298000000     6.657000000
O     3.209000000    -6.279000000     5.004000000
H     2.595000000    -7.007000000     5.104000000
H     2.652000000    -5.510000000     4.885000000
O    -2.107000000    -0.096000000     7.247000000
H    -1.830000000     0.294000000     8.076000000
H    -3.033000000    -0.303000000     7.377000000
O    -0.785000000     1.140000000     9.140000000
H    -0.059000000     0.966000000     8.542000000
H    -0.729000000     2.079000000     9.317000000
O     4.220000000    -4.305000000     7.614000000
H     3.602000000    -4.899000000     8.039000000
H     4.498000000    -4.772000000     6.826000000
O     5.665000000     5.026000000     3.963000000
H     5.993000000     5.633000000     3.300000000
H     5.204000000     4.352000000     3.463000000
