215
-1449.09372
C    -5.173000000    -0.918000000     1.713000000
H    -5.297000000    -1.789000000     1.076000000
C    -4.748000000     0.308000000     1.233000000
C    -4.657000000     1.320000000     2.134000000
H    -4.096000000     2.203000000     1.838000000
C    -4.223000000     0.518000000    -0.183000000
O    -4.874000000    -0.382000000    -1.035000000
H    -3.131000000     0.394000000    -0.233000000
O    -4.499000000     1.880000000    -0.603000000
C    -3.581000000     2.566000000    -1.393000000
C    -2.768000000     3.500000000    -0.747000000
H    -2.957000000     3.678000000     0.309000000
C    -1.708000000     4.048000000    -1.465000000
O    -0.770000000     4.838000000    -0.844000000
C    -1.412000000     3.681000000    -2.826000000
C    -0.284000000     4.311000000    -3.649000000
H    -0.560000000     4.382000000    -4.703000000
C     1.007000000     3.462000000    -3.442000000
C     1.157000000     2.316000000    -4.237000000
H     0.449000000     1.973000000    -4.986000000
H    -0.091000000     5.324000000    -3.288000000
C    -2.192000000     2.688000000    -3.406000000
H    -2.114000000     2.423000000    -4.457000000
C    -3.279000000     2.173000000    -2.707000000
C    -4.062000000     1.080000000    -3.468000000
H    -4.014000000     1.153000000    -4.557000000
H    -5.127000000     1.181000000    -3.250000000
C    -3.662000000    -0.388000000    -3.079000000
C    -2.786000000    -1.103000000    -3.884000000
H    -2.556000000    -0.589000000    -4.814000000
C    -4.136000000    -1.046000000    -1.938000000
C    -3.643000000    -2.337000000    -1.622000000
H    -3.848000000    -2.734000000    -0.631000000
C    -2.780000000    -2.994000000    -2.399000000
O    -2.120000000    -4.125000000    -1.845000000
C    -0.734000000    -4.052000000    -1.465000000
C    -0.418000000    -4.711000000    -0.110000000
C     0.774000000    -5.310000000     0.126000000
H     1.503000000    -5.329000000    -0.680000000
C    -1.397000000    -4.797000000     0.869000000
H    -2.402000000    -4.423000000     0.692000000
O     0.148000000    -4.444000000    -2.529000000
H    -0.668000000    -2.955000000    -1.405000000
C    -2.339000000    -2.318000000    -3.574000000
C    -1.315000000    -2.937000000    -4.468000000
H    -1.481000000    -2.500000000    -5.454000000
H    -1.636000000    -3.976000000    -4.563000000
C     0.108000000    -2.628000000    -4.038000000
C     0.626000000    -1.435000000    -4.576000000
H     0.096000000    -0.861000000    -5.333000000
C     0.820000000    -3.465000000    -3.267000000
C     2.175000000    -3.106000000    -2.984000000
H     2.705000000    -3.754000000    -2.291000000
C     2.674000000    -1.913000000    -3.439000000
O     3.911000000    -1.431000000    -2.895000000
C     3.815000000    -0.225000000    -2.035000000
C     4.694000000    -0.419000000    -0.827000000
C     4.707000000    -1.619000000    -0.186000000
H     4.004000000    -2.378000000    -0.518000000
C     5.320000000     0.698000000    -0.304000000
H     5.202000000     1.700000000    -0.708000000
O     4.123000000     1.029000000    -2.601000000
H     2.789000000    -0.246000000    -1.640000000
C     1.947000000    -1.025000000    -4.254000000
C     2.426000000     0.278000000    -4.896000000
H     1.982000000     0.433000000    -5.882000000
H     3.486000000     0.232000000    -5.154000000
C     2.275000000     1.526000000    -4.067000000
C     3.060000000     1.808000000    -2.937000000
C     2.834000000     2.862000000    -2.039000000
H     3.552000000     3.069000000    -1.249000000
C     1.775000000     3.668000000    -2.299000000
O     1.501000000     4.671000000    -1.328000000
C     0.441000000     4.305000000    -0.406000000
H     0.281000000     3.217000000    -0.423000000
C     0.749000000     4.604000000     1.082000000
C    -0.248000000     4.948000000     1.968000000
H    -1.246000000     5.063000000     1.552000000
C     2.085000000     4.480000000     1.564000000
H     2.853000000     4.187000000     0.852000000
C     2.313000000     4.543000000     2.914000000
O     3.543000000     4.446000000     3.465000000
C     1.302000000     4.865000000     3.766000000
H     1.418000000     4.963000000     4.843000000
C     0.003000000     5.008000000     3.308000000
O    -1.031000000     5.200000000     4.212000000
C    -2.317000000     4.943000000     3.950000000
C    -2.818000000     3.639000000     4.075000000
H    -2.137000000     2.841000000     4.359000000
C    -3.119000000     6.047000000     3.648000000
H    -2.773000000     7.075000000     3.572000000
C    -4.523000000     5.809000000     3.382000000
H    -5.145000000     6.660000000     3.115000000
C    -5.039000000     4.511000000     3.658000000
H    -6.113000000     4.442000000     3.505000000
C    -4.153000000     3.468000000     3.985000000
O    -4.722000000     2.223000000     4.395000000
C    -4.986000000     1.201000000     3.499000000
C    -5.472000000    -0.010000000     3.964000000
H    -5.597000000    -0.005000000     5.043000000
C    -5.513000000    -1.057000000     3.062000000
O    -5.977000000    -2.317000000     3.536000000
C    -5.374000000    -3.530000000     3.149000000
C    -3.967000000    -3.787000000     3.281000000
H    -3.331000000    -2.978000000     3.631000000
C    -6.225000000    -4.508000000     2.674000000
H    -7.304000000    -4.375000000     2.667000000
C    -5.683000000    -5.729000000     2.207000000
H    -6.316000000    -6.515000000     1.802000000
C    -4.286000000    -5.918000000     2.250000000
H    -3.862000000    -6.820000000     1.816000000
C    -3.435000000    -5.002000000     2.979000000
O    -2.092000000    -5.239000000     3.116000000
C    -1.163000000    -5.356000000     2.157000000
C     0.036000000    -5.958000000     2.407000000
H     0.181000000    -6.402000000     3.389000000
C     1.044000000    -5.963000000     1.366000000
O     2.280000000    -6.540000000     1.564000000
C     3.422000000    -6.007000000     1.081000000
C     3.826000000    -4.815000000     1.654000000
H     3.220000000    -4.406000000     2.459000000
C     4.163000000    -6.655000000     0.105000000
H     3.845000000    -7.605000000    -0.317000000
C     5.273000000    -5.983000000    -0.445000000
H     5.903000000    -6.435000000    -1.206000000
C     5.629000000    -4.792000000     0.109000000
H     6.435000000    -4.259000000    -0.389000000
C     4.940000000    -4.179000000     1.127000000
O     5.464000000    -3.067000000     1.639000000
C     5.510000000    -1.872000000     0.951000000
C     6.258000000    -0.767000000     1.439000000
H     6.855000000    -0.846000000     2.344000000
C     6.103000000     0.483000000     0.815000000
O     6.829000000     1.527000000     1.386000000
C     6.233000000     2.764000000     1.658000000
C     7.003000000     3.879000000     1.256000000
H     7.934000000     3.553000000     0.800000000
C     6.596000000     5.194000000     1.549000000
H     7.154000000     6.046000000     1.169000000
C     5.458000000     5.373000000     2.290000000
H     5.130000000     6.345000000     2.649000000
C     4.663000000     4.236000000     2.658000000
C     5.033000000     2.939000000     2.425000000
H     4.500000000     2.012000000     2.623000000
C     1.865000000    -0.599000000     1.525000000
H     2.822000000    -1.106000000     1.621000000
C     1.154000000    -0.728000000     0.352000000
H     1.466000000    -1.384000000    -0.457000000
C    -0.059000000    -0.057000000     0.256000000
H    -0.680000000    -0.239000000    -0.576000000
C    -0.480000000     0.855000000     1.241000000
H    -1.397000000     1.412000000     1.068000000
C     0.299000000     1.008000000     2.361000000
H     0.004000000     1.645000000     3.191000000
C     1.495000000     0.285000000     2.591000000
C     2.283000000     0.554000000     3.837000000
O     2.091000000     1.531000000     4.527000000
O     3.323000000    -0.106000000     4.074000000
O     1.665000000     4.073000000     9.721000000
H     0.911000000     4.167000000    10.303000000
H     1.343000000     3.538000000     8.996000000
O     2.090000000    -1.308000000     8.779000000
H     1.144000000    -1.164000000     8.734000000
H     2.457000000    -0.685000000     8.152000000
O     5.853000000     0.549000000     4.486000000
H     5.797000000     1.504000000     4.521000000
H     5.018000000     0.274000000     4.107000000
O    -0.534000000    -0.774000000     8.060000000
H    -0.564000000    -0.050000000     7.434000000
H    -1.177000000    -1.402000000     7.732000000
O    -0.206000000     3.055000000     7.637000000
H    -0.057000000     2.310000000     7.054000000
H    -0.935000000     2.781000000     8.193000000
O     4.203000000    -2.459000000     4.761000000
H     3.848000000    -1.570000000     4.739000000
H     5.153000000    -2.338000000     4.744000000
O    -0.180000000     0.953000000     5.948000000
H     0.663000000     1.108000000     5.522000000
H    -0.718000000     0.544000000     5.271000000
O     5.461000000    -5.006000000     4.532000000
H     6.370000000    -4.721000000     4.620000000
H     4.989000000    -4.218000000     4.260000000
O     3.202000000    -0.031000000     6.807000000
H     3.039000000    -0.215000000     5.882000000
H     3.503000000     0.878000000     6.821000000
O     4.383000000     3.868000000     8.755000000
H     4.055000000     3.487000000     7.940000000
H     3.610000000     3.937000000     9.315000000
O     2.393000000    -4.246000000     5.629000000
H     1.736000000    -3.619000000     5.931000000
H     3.042000000    -3.711000000     5.172000000
O     5.878000000     3.120000000     5.424000000
H     4.973000000     2.940000000     5.680000000
H     5.912000000     4.070000000     5.315000000
O     8.580000000     0.767000000     3.983000000
H     7.648000000     0.765000000     4.203000000
H     8.967000000     0.123000000     4.576000000
O    -0.802000000    -2.237000000     3.060000000
H    -0.968000000    -2.925000000     2.416000000
H     0.138000000    -2.068000000     2.994000000
O     3.459000000     2.969000000     6.566000000
H     2.852000000     3.674000000     6.789000000
H     3.049000000     2.527000000     5.822000000
O    -0.222000000    -2.679000000     5.729000000
H    -1.116000000    -2.670000000     6.072000000
H    -0.326000000    -2.543000000     4.787000000
O     7.257000000    -2.770000000     4.995000000
H     6.948000000    -2.212000000     5.708000000
H     8.196000000    -2.590000000     4.939000000
O    -2.023000000     0.103000000     4.002000000
H    -1.728000000    -0.682000000     3.540000000
H    -2.448000000     0.632000000     3.327000000
O     5.954000000    -0.772000000     6.876000000
H     6.185000000    -0.089000000     6.246000000
H     5.012000000    -0.667000000     7.008000000
