215
-1454.19407
C    -5.183000000    -0.176000000     1.639000000
H    -4.939000000    -1.146000000     1.214000000
C    -4.968000000     1.051000000     0.954000000
C    -5.235000000     2.300000000     1.596000000
H    -5.135000000     3.250000000     1.079000000
C    -4.397000000     0.929000000    -0.394000000
O    -4.902000000    -0.169000000    -1.167000000
H    -3.327000000     0.735000000    -0.227000000
O    -4.714000000     2.138000000    -1.144000000
C    -3.647000000     2.614000000    -1.908000000
C    -2.733000000     3.452000000    -1.276000000
H    -3.057000000     3.847000000    -0.316000000
C    -1.560000000     3.865000000    -1.908000000
O    -0.750000000     4.677000000    -1.140000000
C    -1.241000000     3.382000000    -3.154000000
C     0.004000000     3.792000000    -3.994000000
H    -0.141000000     3.546000000    -5.048000000
C     1.238000000     2.970000000    -3.536000000
C     1.672000000     1.937000000    -4.343000000
H     1.122000000     1.724000000    -5.256000000
H     0.264000000     4.829000000    -3.772000000
C    -2.166000000     2.522000000    -3.782000000
H    -1.938000000     2.054000000    -4.736000000
C    -3.382000000     2.134000000    -3.187000000
C    -4.214000000     1.004000000    -3.781000000
H    -4.082000000     1.016000000    -4.865000000
H    -5.246000000     1.124000000    -3.445000000
C    -3.699000000    -0.323000000    -3.250000000
C    -2.875000000    -1.024000000    -4.063000000
H    -2.633000000    -0.644000000    -5.052000000
C    -3.997000000    -0.815000000    -1.972000000
C    -3.406000000    -1.982000000    -1.520000000
H    -3.615000000    -2.361000000    -0.524000000
C    -2.662000000    -2.750000000    -2.385000000
O    -2.078000000    -3.902000000    -1.850000000
C    -0.817000000    -3.865000000    -1.319000000
C    -0.602000000    -4.594000000    -0.043000000
C     0.519000000    -5.400000000     0.232000000
H     1.256000000    -5.580000000    -0.546000000
C    -1.389000000    -4.331000000     1.065000000
H    -2.172000000    -3.615000000     0.829000000
O     0.019000000    -4.416000000    -2.321000000
H    -0.546000000    -2.815000000    -1.136000000
C    -2.339000000    -2.310000000    -3.636000000
C    -1.319000000    -3.067000000    -4.505000000
H    -1.467000000    -2.759000000    -5.542000000
H    -1.481000000    -4.146000000    -4.462000000
C     0.093000000    -2.783000000    -4.067000000
C     0.845000000    -1.838000000    -4.722000000
H     0.374000000    -1.318000000    -5.552000000
C     0.701000000    -3.495000000    -3.024000000
C     1.971000000    -3.094000000    -2.611000000
H     2.349000000    -3.619000000    -1.738000000
C     2.691000000    -2.113000000    -3.150000000
O     3.903000000    -1.790000000    -2.553000000
C     3.873000000    -0.715000000    -1.577000000
C     4.690000000    -1.038000000    -0.330000000
C     4.975000000    -2.349000000     0.080000000
H     4.529000000    -3.146000000    -0.509000000
C     5.060000000     0.007000000     0.549000000
H     4.749000000     1.013000000     0.282000000
O     4.306000000     0.482000000    -2.246000000
H     2.813000000    -0.553000000    -1.329000000
C     2.153000000    -1.418000000    -4.219000000
C     2.828000000    -0.222000000    -4.820000000
H     2.388000000     0.047000000    -5.783000000
H     3.917000000    -0.306000000    -4.815000000
C     2.616000000     1.002000000    -3.926000000
C     3.261000000     1.260000000    -2.679000000
C     3.004000000     2.431000000    -1.935000000
H     3.571000000     2.547000000    -1.015000000
C     1.973000000     3.223000000    -2.319000000
O     1.555000000     4.216000000    -1.478000000
C     0.410000000     4.086000000    -0.622000000
H     0.266000000     2.998000000    -0.546000000
C     0.673000000     4.463000000     0.778000000
C    -0.380000000     4.769000000     1.579000000
H    -1.359000000     4.704000000     1.111000000
C     1.975000000     4.619000000     1.260000000
H     2.817000000     4.620000000     0.572000000
C     2.227000000     4.835000000     2.578000000
O     3.561000000     5.177000000     2.906000000
C     1.112000000     5.037000000     3.433000000
H     1.190000000     5.176000000     4.509000000
C    -0.170000000     5.044000000     2.964000000
O    -1.139000000     5.160000000     3.952000000
C    -2.477000000     5.394000000     3.685000000
C    -3.405000000     4.333000000     3.911000000
H    -3.025000000     3.498000000     4.495000000
C    -2.937000000     6.576000000     3.159000000
H    -2.198000000     7.371000000     3.092000000
C    -4.328000000     6.812000000     3.007000000
H    -4.707000000     7.807000000     2.790000000
C    -5.200000000     5.718000000     3.152000000
H    -6.259000000     5.900000000     2.984000000
C    -4.730000000     4.481000000     3.624000000
O    -5.592000000     3.408000000     3.713000000
C    -5.501000000     2.216000000     2.949000000
C    -5.608000000     1.026000000     3.665000000
H    -5.722000000     1.129000000     4.741000000
C    -5.378000000    -0.147000000     3.023000000
O    -5.506000000    -1.398000000     3.741000000
C    -5.012000000    -2.598000000     3.350000000
C    -3.654000000    -2.851000000     3.472000000
H    -3.118000000    -2.029000000     3.939000000
C    -5.897000000    -3.618000000     2.944000000
H    -6.969000000    -3.437000000     2.918000000
C    -5.407000000    -4.943000000     2.615000000
H    -5.987000000    -5.796000000     2.272000000
C    -4.041000000    -5.131000000     2.808000000
H    -3.652000000    -6.140000000     2.705000000
C    -3.182000000    -4.128000000     3.257000000
O    -1.845000000    -4.477000000     3.499000000
C    -1.081000000    -4.811000000     2.344000000
C     0.091000000    -5.563000000     2.555000000
H     0.340000000    -5.832000000     3.578000000
C     0.945000000    -5.840000000     1.449000000
O     2.012000000    -6.653000000     1.558000000
C     3.290000000    -6.378000000     1.126000000
C     3.996000000    -5.273000000     1.614000000
H     3.668000000    -4.723000000     2.492000000
C     3.880000000    -7.178000000     0.168000000
H     3.181000000    -7.941000000    -0.167000000
C     5.173000000    -7.031000000    -0.318000000
H     5.652000000    -7.675000000    -1.051000000
C     5.827000000    -5.900000000     0.207000000
H     6.784000000    -5.613000000    -0.221000000
C     5.208000000    -5.001000000     1.068000000
O     5.895000000    -3.938000000     1.578000000
C     5.654000000    -2.616000000     1.232000000
C     5.927000000    -1.620000000     2.111000000
H     6.385000000    -1.917000000     3.051000000
C     5.634000000    -0.253000000     1.809000000
O     5.659000000     0.744000000     2.743000000
C     5.704000000     2.140000000     2.418000000
C     6.718000000     2.734000000     1.634000000
H     7.587000000     2.182000000     1.285000000
C     6.704000000     4.069000000     1.431000000
H     7.503000000     4.575000000     0.895000000
C     5.700000000     4.856000000     2.023000000
H     5.675000000     5.931000000     1.863000000
C     4.651000000     4.323000000     2.654000000
C     4.674000000     2.906000000     2.847000000
H     3.848000000     2.477000000     3.409000000
C     1.776000000    -1.674000000     2.010000000
H     2.222000000    -2.561000000     2.454000000
C     1.376000000    -1.678000000     0.653000000
H     1.546000000    -2.588000000     0.083000000
C     0.763000000    -0.586000000     0.102000000
H     0.357000000    -0.607000000    -0.904000000
C     0.476000000     0.473000000     0.880000000
H    -0.077000000     1.310000000     0.461000000
C     0.964000000     0.607000000     2.189000000
H     0.800000000     1.487000000     2.806000000
C     1.554000000    -0.529000000     2.741000000
C     1.957000000    -0.457000000     4.211000000
O     1.865000000     0.612000000     4.800000000
O     2.351000000    -1.447000000     4.831000000
O     4.812000000     0.035000000     5.487000000
H     5.193000000     0.157000000     4.617000000
H     3.918000000    -0.262000000     5.318000000
O     6.084000000    -1.960000000     7.004000000
H     5.222000000    -2.036000000     7.413000000
H     5.942000000    -1.389000000     6.249000000
O    -0.060000000     3.641000000     6.539000000
H    -0.617000000     3.035000000     7.027000000
H    -0.671000000     4.162000000     6.018000000
O     3.941000000    -3.806000000     5.063000000
H     3.622000000    -2.945000000     4.793000000
H     4.894000000    -3.712000000     5.082000000
O     0.592000000    -0.221000000     7.118000000
H     0.883000000     0.068000000     6.253000000
H     1.111000000     0.300000000     7.731000000
O     3.332000000    -1.741000000     7.823000000
H     3.309000000    -1.821000000     6.870000000
H     2.817000000    -0.956000000     8.009000000
O     5.448000000     1.135000000     8.083000000
H     5.251000000     1.118000000     7.146000000
H     4.924000000     1.859000000     8.425000000
O    -2.883000000    -3.588000000     7.423000000
H    -2.094000000    -3.948000000     7.827000000
H    -2.641000000    -2.695000000     7.178000000
O     0.773000000    -2.969000000     6.337000000
H     0.377000000    -2.246000000     6.825000000
H     1.357000000    -2.543000000     5.711000000
O     7.296000000     2.574000000     5.637000000
H     6.417000000     2.907000000     5.819000000
H     7.686000000     2.441000000     6.501000000
O    -2.252000000    -1.067000000     6.836000000
H    -1.501000000    -0.501000000     7.020000000
H    -3.009000000    -0.483000000     6.883000000
O     2.279000000     0.855000000     8.802000000
H     2.792000000     1.620000000     8.542000000
H     2.529000000     0.697000000     9.712000000
O    -0.306000000    -5.539000000     5.886000000
H    -1.182000000    -5.281000000     5.597000000
H     0.110000000    -4.719000000     6.151000000
O     2.423000000     2.941000000     5.723000000
H     1.543000000     3.246000000     5.942000000
H     2.300000000     2.034000000     5.444000000
O     3.321000000    -6.249000000     6.371000000
H     2.748000000    -6.130000000     7.128000000
H     3.331000000    -5.393000000     5.942000000
O     2.043000000    -4.677000000     8.323000000
H     2.797000000    -4.212000000     8.687000000
H     1.679000000    -4.073000000     7.676000000
O     6.537000000    -4.193000000     4.867000000
H     6.996000000    -4.100000000     5.702000000
H     6.999000000    -3.600000000     4.274000000
O     4.993000000     3.771000000     5.615000000
H     4.106000000     3.495000000     5.847000000
H     4.899000000     4.182000000     4.756000000
O    -0.450000000     0.613000000     9.968000000
H     0.121000000     0.839000000     9.233000000
H    -0.779000000    -0.260000000     9.756000000
