215
-1436.29249
C    -5.190000000    -1.183000000     1.368000000
H    -4.951000000    -2.091000000     0.821000000
C    -4.917000000     0.060000000     0.725000000
C    -5.022000000     1.192000000     1.430000000
H    -4.712000000     2.146000000     1.012000000
C    -4.384000000     0.185000000    -0.714000000
O    -4.800000000    -1.006000000    -1.403000000
H    -3.293000000     0.258000000    -0.594000000
O    -4.800000000     1.393000000    -1.380000000
C    -3.869000000     2.072000000    -2.134000000
C    -3.265000000     3.277000000    -1.666000000
H    -3.370000000     3.594000000    -0.631000000
C    -2.192000000     3.723000000    -2.356000000
O    -1.380000000     4.626000000    -1.690000000
C    -1.746000000     3.211000000    -3.578000000
C    -0.535000000     3.727000000    -4.326000000
H    -0.704000000     3.540000000    -5.388000000
C     0.819000000     3.049000000    -3.943000000
C     1.378000000     1.961000000    -4.624000000
H     0.892000000     1.617000000    -5.533000000
H    -0.497000000     4.818000000    -4.331000000
C    -2.436000000     2.054000000    -4.041000000
H    -2.009000000     1.518000000    -4.885000000
C    -3.460000000     1.487000000    -3.326000000
C    -3.949000000     0.212000000    -3.929000000
H    -3.621000000     0.185000000    -4.970000000
H    -5.036000000     0.188000000    -3.823000000
C    -3.364000000    -1.091000000    -3.372000000
C    -2.275000000    -1.739000000    -4.029000000
H    -1.835000000    -1.368000000    -4.951000000
C    -3.791000000    -1.615000000    -2.172000000
C    -3.195000000    -2.683000000    -1.616000000
H    -3.618000000    -3.205000000    -0.762000000
C    -2.023000000    -3.229000000    -2.218000000
O    -1.487000000    -4.286000000    -1.479000000
C    -0.238000000    -4.022000000    -0.841000000
C    -0.086000000    -4.475000000     0.588000000
C     1.210000000    -4.609000000     1.139000000
H     2.140000000    -4.249000000     0.707000000
C    -1.221000000    -4.800000000     1.323000000
H    -2.222000000    -4.792000000     0.900000000
O     0.870000000    -4.365000000    -1.775000000
H    -0.253000000    -2.923000000    -0.825000000
C    -1.664000000    -2.822000000    -3.484000000
C    -0.556000000    -3.509000000    -4.205000000
H    -0.528000000    -3.395000000    -5.291000000
H    -0.548000000    -4.579000000    -3.990000000
C     0.760000000    -2.970000000    -3.739000000
C     1.325000000    -1.878000000    -4.363000000
H     0.967000000    -1.392000000    -5.267000000
C     1.455000000    -3.439000000    -2.564000000
C     2.660000000    -2.924000000    -2.139000000
H     3.229000000    -3.244000000    -1.270000000
C     3.152000000    -1.808000000    -2.780000000
O     4.214000000    -1.175000000    -2.218000000
C     4.015000000    -0.082000000    -1.449000000
C     4.927000000    -0.098000000    -0.195000000
C     5.543000000    -1.277000000     0.217000000
H     5.626000000    -2.146000000    -0.431000000
C     5.042000000     1.038000000     0.581000000
H     4.637000000     1.998000000     0.272000000
O     4.162000000     1.096000000    -2.242000000
H     2.960000000    -0.066000000    -1.139000000
C     2.522000000    -1.302000000    -3.939000000
C     2.929000000     0.003000000    -4.617000000
H     2.693000000    -0.104000000    -5.678000000
H     4.018000000     0.016000000    -4.693000000
C     2.434000000     1.302000000    -4.069000000
C     3.064000000     1.728000000    -2.898000000
C     2.632000000     2.888000000    -2.324000000
H     3.068000000     3.245000000    -1.395000000
C     1.495000000     3.601000000    -2.807000000
O     0.931000000     4.622000000    -2.033000000
C    -0.077000000     4.189000000    -1.099000000
H    -0.058000000     3.092000000    -1.014000000
C     0.194000000     4.613000000     0.384000000
C    -0.791000000     4.363000000     1.326000000
H    -1.744000000     3.966000000     0.987000000
C     1.492000000     4.991000000     0.875000000
H     2.313000000     4.968000000     0.162000000
C     1.689000000     5.243000000     2.218000000
O     2.892000000     5.734000000     2.599000000
C     0.693000000     4.952000000     3.134000000
H     0.787000000     5.055000000     4.212000000
C    -0.523000000     4.604000000     2.683000000
O    -1.451000000     4.393000000     3.678000000
C    -2.821000000     4.572000000     3.501000000
C    -3.634000000     3.476000000     3.806000000
H    -3.148000000     2.515000000     3.950000000
C    -3.379000000     5.701000000     2.968000000
H    -2.688000000     6.453000000     2.596000000
C    -4.763000000     5.802000000     2.783000000
H    -5.250000000     6.679000000     2.365000000
C    -5.518000000     4.684000000     3.001000000
H    -6.519000000     4.608000000     2.585000000
C    -4.996000000     3.498000000     3.501000000
O    -5.788000000     2.359000000     3.531000000
C    -5.570000000     1.189000000     2.750000000
C    -5.869000000    -0.031000000     3.367000000
H    -6.176000000    -0.050000000     4.410000000
C    -5.613000000    -1.201000000     2.701000000
O    -5.906000000    -2.321000000     3.412000000
C    -5.270000000    -3.506000000     3.056000000
C    -4.035000000    -3.828000000     3.561000000
H    -3.503000000    -3.153000000     4.226000000
C    -5.988000000    -4.287000000     2.187000000
H    -7.025000000    -4.123000000     1.906000000
C    -5.390000000    -5.466000000     1.696000000
H    -5.942000000    -6.144000000     1.050000000
C    -4.176000000    -5.830000000     2.229000000
H    -3.723000000    -6.724000000     1.809000000
C    -3.464000000    -5.076000000     3.151000000
O    -2.180000000    -5.462000000     3.502000000
C    -1.094000000    -5.139000000     2.664000000
C     0.169000000    -5.223000000     3.192000000
H     0.230000000    -5.526000000     4.234000000
C     1.304000000    -4.936000000     2.481000000
O     2.486000000    -4.881000000     3.233000000
C     3.729000000    -4.885000000     2.611000000
C     4.522000000    -3.744000000     2.662000000
H     4.033000000    -2.903000000     3.146000000
C     4.173000000    -6.011000000     1.931000000
H     3.532000000    -6.889000000     1.935000000
C     5.390000000    -5.912000000     1.225000000
H     5.761000000    -6.627000000     0.495000000
C     6.107000000    -4.767000000     1.262000000
H     6.994000000    -4.710000000     0.637000000
C     5.666000000    -3.680000000     2.005000000
O     6.430000000    -2.560000000     2.078000000
C     5.966000000    -1.372000000     1.516000000
C     6.192000000    -0.231000000     2.264000000
H     6.593000000    -0.272000000     3.273000000
C     5.741000000     0.990000000     1.800000000
O     5.871000000     2.139000000     2.551000000
C     5.515000000     3.285000000     2.120000000
C     6.433000000     3.964000000     1.321000000
H     7.348000000     3.431000000     1.075000000
C     6.244000000     5.317000000     1.050000000
H     6.989000000     5.847000000     0.462000000
C     5.009000000     5.891000000     1.448000000
H     4.808000000     6.916000000     1.146000000
C     4.098000000     5.170000000     2.192000000
C     4.344000000     3.853000000     2.541000000
H     3.659000000     3.260000000     3.141000000
C     1.640000000    -1.015000000     1.770000000
H     2.374000000    -1.817000000     1.750000000
C     1.047000000    -0.770000000     0.503000000
H     1.342000000    -1.317000000    -0.389000000
C     0.155000000     0.232000000     0.368000000
H    -0.373000000     0.380000000    -0.601000000
C    -0.030000000     1.134000000     1.372000000
H    -0.705000000     1.967000000     1.197000000
C     0.610000000     1.038000000     2.555000000
H     0.535000000     1.831000000     3.296000000
C     1.424000000    -0.091000000     2.869000000
C     2.025000000    -0.239000000     4.228000000
O     1.955000000     0.669000000     5.028000000
O     2.650000000    -1.261000000     4.511000000
O     5.378000000    -1.925000000     8.138000000
H     4.449000000    -1.722000000     8.247000000
H     5.606000000    -1.556000000     7.284000000
O     5.155000000    -0.666000000     5.608000000
H     4.963000000     0.261000000     5.466000000
H     4.491000000    -1.129000000     5.097000000
O     0.223000000    -0.675000000     9.800000000
H    -0.526000000    -0.097000000     9.650000000
H    -0.161000000    -1.549000000     9.879000000
O     1.948000000     2.909000000     7.542000000
H     2.432000000     2.394000000     8.188000000
H     1.459000000     2.260000000     7.037000000
O     5.831000000    -4.652000000     7.505000000
H     6.296000000    -4.748000000     6.674000000
H     5.414000000    -3.792000000     7.448000000
O     3.104000000     4.934000000     6.173000000
H     2.740000000     5.700000000     6.615000000
H     2.719000000     4.187000000     6.631000000
O    -1.847000000     3.554000000     6.394000000
H    -1.336000000     2.747000000     6.447000000
H    -1.666000000     3.897000000     5.519000000
O    -0.130000000     1.347000000     6.388000000
H     0.512000000     1.127000000     5.714000000
H    -0.459000000     0.501000000     6.691000000
O     2.488000000    -0.987000000     7.618000000
H     1.674000000    -1.440000000     7.840000000
H     2.427000000    -0.835000000     6.675000000
O    -1.898000000    -2.814000000     8.112000000
H    -2.441000000    -3.336000000     7.522000000
H    -1.570000000    -3.442000000     8.755000000
O     1.232000000    -3.437000000     5.361000000
H     1.990000000    -2.939000000     5.055000000
H     1.320000000    -4.291000000     4.937000000
O     6.622000000     2.790000000     5.320000000
H     5.740000000     2.490000000     5.538000000
H     6.768000000     2.477000000     4.427000000
O    -1.776000000    -1.667000000     2.778000000
H    -1.167000000    -2.367000000     2.543000000
H    -1.484000000    -0.913000000     2.265000000
O     0.600000000    -4.499000000     8.027000000
H    -0.002000000    -5.237000000     8.120000000
H     0.960000000    -4.594000000     7.145000000
O     4.207000000     1.867000000     5.622000000
H     3.844000000     2.652000000     6.032000000
H     3.440000000     1.355000000     5.366000000
O    -0.126000000    -1.467000000     6.540000000
H    -0.729000000    -2.043000000     7.010000000
H     0.398000000    -2.058000000     6.000000000
O     3.705000000     0.911000000     9.144000000
H     3.451000000     0.530000000     9.985000000
H     3.368000000     0.297000000     8.492000000
O    -2.560000000    -0.372000000     5.564000000
H    -2.423000000    -0.456000000     4.620000000
H    -1.816000000    -0.830000000     5.955000000
O     7.540000000    -1.667000000     5.204000000
H     7.525000000    -2.622000000     5.155000000
H     6.700000000    -1.434000000     5.598000000
