215
-1439.73389
C    -4.838000000    -0.895000000     1.639000000
H    -4.785000000    -1.762000000     0.986000000
C    -4.603000000     0.369000000     1.058000000
C    -4.483000000     1.534000000     1.872000000
H    -4.181000000     2.457000000     1.382000000
C    -4.178000000     0.468000000    -0.350000000
O    -4.886000000    -0.524000000    -1.138000000
H    -3.086000000     0.334000000    -0.368000000
O    -4.353000000     1.867000000    -0.791000000
C    -3.517000000     2.409000000    -1.733000000
C    -2.783000000     3.507000000    -1.267000000
H    -2.972000000     3.778000000    -0.231000000
C    -1.765000000     4.004000000    -2.079000000
O    -0.873000000     4.851000000    -1.525000000
C    -1.497000000     3.451000000    -3.378000000
C    -0.262000000     3.971000000    -4.241000000
H    -0.417000000     3.754000000    -5.300000000
C     0.959000000     3.166000000    -3.887000000
C     1.357000000     1.986000000    -4.595000000
H     0.721000000     1.653000000    -5.411000000
H    -0.154000000     5.055000000    -4.173000000
C    -2.409000000     2.503000000    -3.938000000
H    -2.358000000     2.116000000    -4.952000000
C    -3.323000000     1.902000000    -3.053000000
C    -4.222000000     0.788000000    -3.630000000
H    -4.234000000     0.882000000    -4.717000000
H    -5.242000000     0.951000000    -3.276000000
C    -3.785000000    -0.621000000    -3.260000000
C    -2.820000000    -1.227000000    -4.026000000
H    -2.523000000    -0.852000000    -5.003000000
C    -4.127000000    -1.225000000    -2.038000000
C    -3.607000000    -2.411000000    -1.683000000
H    -3.610000000    -2.786000000    -0.663000000
C    -2.673000000    -3.062000000    -2.406000000
O    -2.114000000    -4.297000000    -2.008000000
C    -0.805000000    -4.157000000    -1.381000000
C    -0.648000000    -4.788000000     0.029000000
C     0.618000000    -4.820000000     0.605000000
H     1.433000000    -4.323000000     0.085000000
C    -1.735000000    -5.236000000     0.762000000
H    -2.726000000    -5.195000000     0.317000000
O     0.203000000    -4.569000000    -2.309000000
H    -0.588000000    -3.079000000    -1.350000000
C    -2.312000000    -2.518000000    -3.619000000
C    -1.255000000    -3.105000000    -4.531000000
H    -1.456000000    -2.877000000    -5.580000000
H    -1.496000000    -4.170000000    -4.521000000
C     0.227000000    -2.841000000    -4.042000000
C     0.798000000    -1.667000000    -4.581000000
H     0.261000000    -1.057000000    -5.303000000
C     0.880000000    -3.589000000    -3.082000000
C     2.045000000    -3.122000000    -2.556000000
H     2.476000000    -3.681000000    -1.730000000
C     2.667000000    -1.968000000    -3.050000000
O     3.875000000    -1.551000000    -2.449000000
C     3.774000000    -0.337000000    -1.675000000
C     4.693000000    -0.601000000    -0.464000000
C     5.093000000    -1.879000000    -0.126000000
H     4.782000000    -2.762000000    -0.678000000
C     4.896000000     0.492000000     0.426000000
H     4.463000000     1.461000000     0.188000000
O     4.090000000     0.821000000    -2.349000000
H     2.754000000    -0.272000000    -1.267000000
C     2.071000000    -1.264000000    -4.126000000
C     2.752000000    -0.070000000    -4.780000000
H     2.414000000    -0.087000000    -5.818000000
H     3.834000000    -0.208000000    -4.725000000
C     2.428000000     1.211000000    -4.141000000
C     3.128000000     1.614000000    -3.006000000
C     2.799000000     2.862000000    -2.357000000
H     3.390000000     3.151000000    -1.492000000
C     1.727000000     3.576000000    -2.801000000
O     1.453000000     4.650000000    -1.933000000
C     0.357000000     4.327000000    -1.025000000
H     0.382000000     3.227000000    -1.024000000
C     0.639000000     4.825000000     0.384000000
C    -0.395000000     5.115000000     1.356000000
H    -1.440000000     4.937000000     1.115000000
C     1.990000000     4.994000000     0.733000000
H     2.846000000     4.953000000     0.064000000
C     2.332000000     5.379000000     2.042000000
O     3.693000000     5.616000000     2.426000000
C     1.338000000     5.583000000     3.022000000
H     1.552000000     5.968000000     4.015000000
C    -0.052000000     5.534000000     2.659000000
O    -0.946000000     5.955000000     3.581000000
C    -2.265000000     5.480000000     3.629000000
C    -2.665000000     4.146000000     3.704000000
H    -1.931000000     3.425000000     3.350000000
C    -3.249000000     6.438000000     3.729000000
H    -2.988000000     7.441000000     3.403000000
C    -4.544000000     6.073000000     4.043000000
H    -5.347000000     6.804000000     4.076000000
C    -4.869000000     4.719000000     4.165000000
H    -5.856000000     4.438000000     4.523000000
C    -3.969000000     3.764000000     3.926000000
O    -4.323000000     2.434000000     4.075000000
C    -4.563000000     1.381000000     3.236000000
C    -4.757000000     0.163000000     3.802000000
H    -4.534000000    -0.043000000     4.846000000
C    -5.030000000    -1.003000000     3.010000000
O    -5.298000000    -2.182000000     3.711000000
C    -5.195000000    -3.523000000     3.334000000
C    -3.924000000    -4.042000000     3.330000000
H    -3.041000000    -3.457000000     3.573000000
C    -6.346000000    -4.257000000     3.049000000
H    -7.315000000    -3.814000000     3.265000000
C    -6.182000000    -5.594000000     2.547000000
H    -7.046000000    -6.095000000     2.117000000
C    -4.940000000    -6.171000000     2.525000000
H    -4.824000000    -7.202000000     2.201000000
C    -3.816000000    -5.391000000     2.871000000
O    -2.567000000    -5.952000000     2.889000000
C    -1.559000000    -5.635000000     2.102000000
C    -0.326000000    -5.650000000     2.714000000
H    -0.294000000    -5.932000000     3.763000000
C     0.788000000    -5.252000000     1.908000000
O     2.017000000    -5.145000000     2.553000000
C     3.250000000    -5.256000000     1.955000000
C     4.075000000    -4.147000000     1.951000000
H     3.702000000    -3.200000000     2.333000000
C     3.651000000    -6.441000000     1.400000000
H     2.929000000    -7.253000000     1.389000000
C     4.855000000    -6.581000000     0.763000000
H     5.100000000    -7.495000000     0.227000000
C     5.761000000    -5.470000000     0.827000000
H     6.675000000    -5.403000000     0.241000000
C     5.378000000    -4.271000000     1.434000000
O     6.213000000    -3.254000000     1.433000000
C     5.842000000    -2.002000000     1.054000000
C     6.139000000    -0.919000000     1.883000000
H     6.759000000    -1.116000000     2.754000000
C     5.641000000     0.312000000     1.552000000
O     5.868000000     1.356000000     2.403000000
C     5.833000000     2.786000000     2.092000000
C     7.044000000     3.375000000     1.817000000
H     7.948000000     2.773000000     1.774000000
C     7.135000000     4.755000000     1.651000000
H     8.049000000     5.231000000     1.305000000
C     5.964000000     5.477000000     1.705000000
H     6.068000000     6.552000000     1.584000000
C     4.755000000     4.820000000     2.001000000
C     4.701000000     3.465000000     2.210000000
H     3.807000000     2.944000000     2.542000000
C     0.933000000    -1.549000000     2.401000000
H     1.475000000    -2.423000000     2.753000000
C    -0.077000000    -1.640000000     1.457000000
H    -0.335000000    -2.602000000     1.022000000
C    -0.823000000    -0.508000000     1.131000000
H    -1.643000000    -0.637000000     0.477000000
C    -0.452000000     0.717000000     1.597000000
H    -1.064000000     1.569000000     1.311000000
C     0.623000000     0.866000000     2.476000000
H     0.858000000     1.840000000     2.896000000
C     1.341000000    -0.306000000     2.889000000
C     2.382000000    -0.189000000     3.955000000
O     2.676000000     0.852000000     4.507000000
O     2.788000000    -1.186000000     4.440000000
O    -1.122000000     2.188000000     8.220000000
H    -1.720000000     1.441000000     8.229000000
H    -0.260000000     1.804000000     8.058000000
O     5.369000000     0.654000000     4.873000000
H     5.696000000     0.976000000     4.033000000
H     4.425000000     0.566000000     4.745000000
O     7.061000000    -1.229000000     5.862000000
H     6.293000000    -0.724000000     5.596000000
H     7.791000000    -0.614000000     5.785000000
O    -0.769000000     4.333000000     6.652000000
H    -0.692000000     3.660000000     7.329000000
H    -1.658000000     4.673000000     6.753000000
O     3.145000000    -4.209000000     5.407000000
H     2.322000000    -3.760000000     5.600000000
H     3.693000000    -3.539000000     4.998000000
O     1.131000000     1.111000000     6.935000000
H     1.244000000     0.647000000     6.106000000
H     1.523000000     0.533000000     7.589000000
O     3.643000000    -1.134000000     6.851000000
H     3.338000000    -1.309000000     5.960000000
H     4.338000000    -0.485000000     6.742000000
O     6.893000000     2.395000000     7.741000000
H     6.882000000     3.127000000     7.125000000
H     6.168000000     1.836000000     7.461000000
O     0.869000000    -2.566000000     5.665000000
H     0.093000000    -2.093000000     5.966000000
H     1.416000000    -1.893000000     5.258000000
O     6.747000000     3.780000000     4.892000000
H     6.054000000     4.071000000     5.484000000
H     6.537000000     4.195000000     4.055000000
O    -1.320000000    -2.221000000     7.323000000
H    -0.509000000    -2.169000000     7.828000000
H    -1.746000000    -1.376000000     7.467000000
O     4.145000000     2.110000000     8.206000000
H     4.245000000     2.974000000     7.807000000
H     3.209000000     2.038000000     8.391000000
O    -0.674000000    -4.854000000     6.429000000
H    -1.283000000    -4.383000000     6.996000000
H    -0.047000000    -4.189000000     6.145000000
O     2.493000000     3.666000000     5.396000000
H     1.579000000     3.697000000     5.680000000
H     2.634000000     2.754000000     5.142000000
O     4.125000000    -6.731000000     5.145000000
H     4.461000000    -7.087000000     4.323000000
H     3.848000000    -5.841000000     4.925000000
O     2.493000000    -4.648000000     8.081000000
H     3.310000000    -4.626000000     7.582000000
H     1.870000000    -5.086000000     7.500000000
O     6.643000000    -3.895000000     5.865000000
H     6.615000000    -2.941000000     5.794000000
H     7.202000000    -4.173000000     5.140000000
O     4.791000000     4.504000000     6.391000000
H     4.684000000     5.440000000     6.560000000
H     3.968000000     4.239000000     5.980000000
O     1.327000000    -1.209000000     8.486000000
H     1.599000000    -1.980000000     8.983000000
H     2.043000000    -1.057000000     7.869000000
