215
-1496.34339
C    -5.252000000    -1.317000000     1.307000000
H    -5.198000000    -2.300000000     0.845000000
C    -4.684000000    -0.231000000     0.543000000
C    -4.550000000     0.974000000     1.182000000
H    -4.089000000     1.771000000     0.604000000
C    -4.255000000    -0.310000000    -0.908000000
O    -4.522000000    -1.596000000    -1.387000000
H    -3.156000000    -0.266000000    -0.875000000
O    -4.741000000     0.683000000    -1.800000000
C    -3.805000000     1.220000000    -2.654000000
C    -3.218000000     2.412000000    -2.258000000
H    -3.629000000     2.967000000    -1.419000000
C    -2.098000000     2.933000000    -2.961000000
O    -1.489000000     4.056000000    -2.345000000
C    -1.587000000     2.282000000    -4.064000000
C    -0.334000000     2.851000000    -4.779000000
H    -0.491000000     2.530000000    -5.811000000
C     0.969000000     2.358000000    -4.209000000
C     1.627000000     1.195000000    -4.627000000
H     1.331000000     0.802000000    -5.596000000
H    -0.411000000     3.938000000    -4.850000000
C    -2.080000000     1.045000000    -4.418000000
H    -1.647000000     0.510000000    -5.259000000
C    -3.146000000     0.483000000    -3.704000000
C    -3.713000000    -0.877000000    -4.081000000
H    -3.653000000    -1.019000000    -5.162000000
H    -4.764000000    -0.787000000    -3.799000000
C    -2.964000000    -1.924000000    -3.252000000
C    -1.819000000    -2.589000000    -3.715000000
H    -1.472000000    -2.407000000    -4.729000000
C    -3.463000000    -2.283000000    -1.961000000
C    -2.896000000    -3.302000000    -1.270000000
H    -3.292000000    -3.476000000    -0.273000000
C    -1.811000000    -3.956000000    -1.728000000
O    -1.092000000    -4.737000000    -0.872000000
C     0.014000000    -4.099000000    -0.217000000
C     0.146000000    -4.556000000     1.236000000
C     1.381000000    -4.600000000     1.857000000
H     2.322000000    -4.514000000     1.320000000
C    -1.060000000    -4.644000000     2.018000000
H    -2.052000000    -4.622000000     1.573000000
O     1.203000000    -4.576000000    -0.920000000
H    -0.114000000    -3.013000000    -0.337000000
C    -1.249000000    -3.609000000    -2.971000000
C    -0.054000000    -4.225000000    -3.506000000
H    -0.137000000    -4.319000000    -4.591000000
H    -0.062000000    -5.277000000    -3.213000000
C     1.172000000    -3.497000000    -2.990000000
C     1.666000000    -2.485000000    -3.825000000
H     1.228000000    -2.224000000    -4.784000000
C     1.796000000    -3.669000000    -1.786000000
C     2.966000000    -3.055000000    -1.465000000
H     3.473000000    -3.282000000    -0.531000000
C     3.407000000    -2.003000000    -2.295000000
O     4.545000000    -1.324000000    -1.821000000
C     4.141000000    -0.023000000    -1.255000000
C     4.872000000     0.221000000     0.031000000
C     5.272000000    -0.838000000     0.873000000
H     5.159000000    -1.851000000     0.495000000
C     4.897000000     1.549000000     0.623000000
H     4.510000000     2.450000000     0.153000000
O     4.303000000     1.012000000    -2.211000000
H     3.063000000    -0.134000000    -1.067000000
C     2.723000000    -1.644000000    -3.412000000
C     3.314000000    -0.604000000    -4.290000000
H     3.077000000    -0.845000000    -5.329000000
H     4.400000000    -0.532000000    -4.199000000
C     2.761000000     0.745000000    -3.951000000
C     3.295000000     1.527000000    -2.978000000
C     2.596000000     2.592000000    -2.447000000
H     3.071000000     3.145000000    -1.641000000
C     1.414000000     2.954000000    -3.027000000
O     0.793000000     4.069000000    -2.488000000
C    -0.257000000     3.917000000    -1.538000000
H    -0.106000000     2.942000000    -1.051000000
C    -0.114000000     4.839000000    -0.314000000
C    -1.284000000     5.307000000     0.343000000
H    -2.243000000     4.877000000     0.067000000
C     1.091000000     5.285000000     0.242000000
H     1.945000000     4.765000000    -0.184000000
C     1.110000000     6.045000000     1.380000000
O     2.242000000     6.585000000     1.982000000
C    -0.090000000     6.583000000     1.960000000
H    -0.027000000     7.072000000     2.929000000
C    -1.297000000     6.184000000     1.413000000
O    -2.440000000     6.487000000     2.120000000
C    -3.593000000     5.747000000     1.910000000
C    -3.534000000     4.506000000     2.583000000
H    -2.705000000     4.114000000     3.168000000
C    -4.570000000     6.170000000     1.049000000
H    -4.542000000     7.166000000     0.613000000
C    -5.699000000     5.253000000     0.880000000
H    -6.534000000     5.647000000     0.306000000
C    -5.702000000     4.002000000     1.567000000
H    -6.535000000     3.326000000     1.392000000
C    -4.583000000     3.661000000     2.368000000
O    -4.639000000     2.456000000     3.070000000
C    -5.005000000     1.263000000     2.467000000
C    -5.466000000     0.149000000     3.211000000
H    -5.737000000     0.333000000     4.248000000
C    -5.602000000    -1.119000000     2.646000000
O    -5.830000000    -2.205000000     3.452000000
C    -5.179000000    -3.428000000     3.425000000
C    -3.843000000    -3.607000000     3.785000000
H    -3.228000000    -2.749000000     4.048000000
C    -5.934000000    -4.496000000     3.070000000
H    -6.990000000    -4.374000000     2.845000000
C    -5.419000000    -5.796000000     3.173000000
H    -5.946000000    -6.685000000     2.834000000
C    -4.096000000    -5.984000000     3.469000000
H    -3.647000000    -6.974000000     3.437000000
C    -3.292000000    -4.889000000     3.790000000
O    -1.994000000    -5.064000000     4.217000000
C    -0.895000000    -4.904000000     3.373000000
C     0.287000000    -5.063000000     3.967000000
H     0.236000000    -5.189000000     5.046000000
C     1.428000000    -4.855000000     3.234000000
O     2.643000000    -4.837000000     3.856000000
C     3.863000000    -4.507000000     3.274000000
C     4.398000000    -3.241000000     3.408000000
H     3.828000000    -2.436000000     3.866000000
C     4.611000000    -5.489000000     2.631000000
H     4.214000000    -6.495000000     2.520000000
C     5.694000000    -5.156000000     1.944000000
H     6.105000000    -5.975000000     1.360000000
C     6.235000000    -3.871000000     1.956000000
H     7.207000000    -3.686000000     1.507000000
C     5.616000000    -2.943000000     2.799000000
O     6.211000000    -1.693000000     2.861000000
C     5.796000000    -0.608000000     2.143000000
C     5.905000000     0.683000000     2.651000000
H     6.318000000     0.806000000     3.649000000
C     5.463000000     1.744000000     1.899000000
O     5.491000000     3.020000000     2.463000000
C     5.031000000     4.204000000     1.842000000
C     5.867000000     4.895000000     0.916000000
H     6.832000000     4.444000000     0.702000000
C     5.445000000     6.025000000     0.254000000
H     6.085000000     6.514000000    -0.476000000
C     4.216000000     6.620000000     0.619000000
H     3.825000000     7.531000000     0.173000000
C     3.483000000     6.023000000     1.636000000
C     3.828000000     4.827000000     2.196000000
H     3.163000000     4.474000000     2.980000000
C     1.640000000    -0.274000000     1.182000000
H     2.416000000    -1.014000000     1.360000000
C     0.780000000    -0.503000000     0.105000000
H     0.966000000    -1.353000000    -0.545000000
C    -0.355000000     0.245000000    -0.111000000
H    -1.016000000    -0.008000000    -0.929000000
C    -0.729000000     1.287000000     0.784000000
H    -1.597000000     1.884000000     0.515000000
C     0.102000000     1.551000000     1.888000000
H    -0.085000000     2.359000000     2.591000000
C     1.284000000     0.725000000     2.140000000
C     2.161000000     1.029000000     3.327000000
O     2.154000000     2.124000000     3.934000000
O     2.749000000     0.113000000     3.858000000
O     7.827000000     2.414000000     5.934000000
H     7.117000000     1.925000000     6.351000000
H     8.160000000     1.823000000     5.259000000
O     3.047000000    -0.404000000     8.414000000
H     2.314000000    -0.496000000     9.023000000
H     2.782000000     0.303000000     7.825000000
O     4.904000000    -0.445000000     5.309000000
H     4.052000000    -0.222000000     4.935000000
H     5.495000000    -0.480000000     4.556000000
O     0.723000000    -0.047000000     9.564000000
H     0.348000000     0.773000000     9.883000000
H     0.158000000    -0.301000000     8.834000000
O     4.237000000     3.462000000     9.477000000
H     5.028000000     3.408000000     8.940000000
H     3.543000000     3.115000000     8.917000000
O     3.326000000    -2.681000000     6.923000000
H     3.247000000    -1.915000000     7.492000000
H     4.234000000    -2.662000000     6.621000000
O     2.028000000     4.600000000     6.955000000
H     2.148000000     4.767000000     7.890000000
H     1.517000000     5.346000000     6.642000000
O     0.163000000     6.314000000     5.738000000
H    -0.505000000     5.785000000     5.303000000
H    -0.333000000     6.962000000     6.239000000
O    -0.699000000     3.345000000     4.789000000
H     0.133000000     2.924000000     4.573000000
H    -1.341000000     2.637000000     4.754000000
O     1.800000000     1.097000000     6.429000000
H     2.296000000     1.545000000     5.744000000
H     1.298000000     0.428000000     5.963000000
O    -0.171000000     2.600000000     7.505000000
H     0.610000000     2.194000000     7.128000000
H    -0.548000000     3.107000000     6.786000000
O     1.338000000    -1.754000000     5.172000000
H     1.872000000    -1.064000000     4.779000000
H     1.958000000    -2.274000000     5.683000000
O     5.725000000     1.373000000     7.054000000
H     5.198000000     2.119000000     6.766000000
H     5.451000000     0.653000000     6.485000000
O    -0.892000000    -1.468000000     3.794000000
H    -0.579000000    -1.032000000     3.002000000
H    -0.096000000    -1.668000000     4.288000000
O     4.271000000     3.511000000     5.809000000
H     3.615000000     4.086000000     6.204000000
H     3.769000000     2.941000000     5.226000000
O    -0.890000000    -0.774000000     7.174000000
H    -1.616000000    -1.260000000     7.565000000
H    -0.422000000    -1.423000000     6.650000000
O     5.865000000     5.942000000     4.246000000
H     6.802000000     5.818000000     4.392000000
H     5.464000000     5.133000000     4.563000000
O     8.134000000     3.950000000     3.371000000
H     8.152000000     3.743000000     4.305000000
H     7.342000000     3.523000000     3.046000000
O    -1.898000000     0.826000000     5.327000000
H    -1.679000000     0.140000000     4.697000000
H    -1.571000000     0.497000000     6.164000000
