215
-1448.50694
C    -5.184000000    -0.809000000     1.882000000
H    -5.145000000    -1.826000000     1.500000000
C    -4.794000000     0.309000000     1.123000000
C    -4.768000000     1.544000000     1.752000000
H    -4.606000000     2.420000000     1.130000000
C    -4.389000000     0.214000000    -0.333000000
O    -4.917000000    -1.000000000    -0.944000000
H    -3.292000000     0.151000000    -0.384000000
O    -4.702000000     1.316000000    -1.145000000
C    -3.782000000     1.643000000    -2.097000000
C    -3.063000000     2.779000000    -1.818000000
H    -3.152000000     3.353000000    -0.899000000
C    -1.997000000     3.114000000    -2.634000000
O    -1.248000000     4.168000000    -2.232000000
C    -1.734000000     2.381000000    -3.819000000
C    -0.636000000     2.918000000    -4.770000000
H    -0.867000000     2.708000000    -5.816000000
C     0.716000000     2.415000000    -4.303000000
C     1.229000000     1.271000000    -4.858000000
H     0.638000000     0.689000000    -5.560000000
H    -0.737000000     4.006000000    -4.752000000
C    -2.582000000     1.319000000    -4.137000000
H    -2.494000000     0.723000000    -5.042000000
C    -3.676000000     0.971000000    -3.333000000
C    -4.480000000    -0.307000000    -3.582000000
H    -4.586000000    -0.429000000    -4.662000000
H    -5.463000000    -0.332000000    -3.106000000
C    -3.720000000    -1.466000000    -2.957000000
C    -2.627000000    -2.082000000    -3.552000000
H    -2.359000000    -1.874000000    -4.585000000
C    -4.047000000    -1.823000000    -1.647000000
C    -3.376000000    -2.792000000    -0.894000000
H    -3.636000000    -2.896000000     0.157000000
C    -2.389000000    -3.518000000    -1.542000000
O    -1.717000000    -4.452000000    -0.804000000
C    -0.400000000    -3.999000000    -0.268000000
C    -0.200000000    -4.568000000     1.070000000
C     1.059000000    -5.170000000     1.408000000
H     1.921000000    -5.339000000     0.767000000
C    -1.148000000    -4.389000000     2.031000000
H    -2.063000000    -3.911000000     1.691000000
O     0.700000000    -4.376000000    -1.194000000
H    -0.365000000    -2.914000000    -0.093000000
C    -1.953000000    -3.092000000    -2.845000000
C    -0.794000000    -3.790000000    -3.553000000
H    -0.903000000    -3.644000000    -4.630000000
H    -0.778000000    -4.875000000    -3.431000000
C     0.511000000    -3.196000000    -3.245000000
C     1.067000000    -2.279000000    -4.115000000
H     0.481000000    -1.824000000    -4.909000000
C     1.176000000    -3.505000000    -2.054000000
C     2.433000000    -3.012000000    -1.849000000
H     2.816000000    -3.350000000    -0.890000000
C     2.994000000    -2.100000000    -2.781000000
O     4.197000000    -1.547000000    -2.478000000
C     3.989000000    -0.338000000    -1.750000000
C     4.764000000    -0.221000000    -0.381000000
C     4.847000000    -1.351000000     0.439000000
H     4.690000000    -2.341000000     0.018000000
C     5.134000000     1.011000000     0.118000000
H     5.115000000     1.912000000    -0.490000000
O     4.159000000     0.748000000    -2.648000000
H     2.915000000    -0.270000000    -1.522000000
C     2.320000000    -1.709000000    -3.921000000
C     2.843000000    -0.657000000    -4.918000000
H     2.574000000    -0.809000000    -5.965000000
H     3.933000000    -0.697000000    -4.972000000
C     2.420000000     0.726000000    -4.415000000
C     3.136000000     1.372000000    -3.354000000
C     2.633000000     2.579000000    -2.865000000
H     3.155000000     3.052000000    -2.037000000
C     1.529000000     3.129000000    -3.411000000
O     0.992000000     4.275000000    -2.845000000
C     0.069000000     3.949000000    -1.793000000
H     0.150000000     2.871000000    -1.589000000
C     0.391000000     4.665000000    -0.489000000
C    -0.647000000     4.814000000     0.437000000
H    -1.550000000     4.222000000     0.312000000
C     1.635000000     5.278000000    -0.219000000
H     2.421000000     5.158000000    -0.960000000
C     1.901000000     5.823000000     0.982000000
O     3.162000000     6.353000000     1.275000000
C     0.870000000     5.939000000     1.916000000
H     1.098000000     6.355000000     2.894000000
C    -0.448000000     5.441000000     1.628000000
O    -1.296000000     5.487000000     2.683000000
C    -2.644000000     5.370000000     2.598000000
C    -3.154000000     4.280000000     3.305000000
H    -2.519000000     3.737000000     4.000000000
C    -3.462000000     6.008000000     1.683000000
H    -3.047000000     6.785000000     1.047000000
C    -4.855000000     5.806000000     1.660000000
H    -5.488000000     6.400000000     1.006000000
C    -5.389000000     4.817000000     2.473000000
H    -6.446000000     4.643000000     2.288000000
C    -4.542000000     4.002000000     3.217000000
O    -4.983000000     2.849000000     3.844000000
C    -5.073000000     1.664000000     3.108000000
C    -5.470000000     0.557000000     3.775000000
H    -5.792000000     0.617000000     4.811000000
C    -5.453000000    -0.714000000     3.213000000
O    -5.805000000    -1.845000000     3.892000000
C    -5.134000000    -3.014000000     3.817000000
C    -3.794000000    -3.150000000     4.038000000
H    -3.264000000    -2.215000000     4.197000000
C    -5.994000000    -4.162000000     3.695000000
H    -7.078000000    -4.108000000     3.638000000
C    -5.465000000    -5.397000000     3.680000000
H    -6.063000000    -6.291000000     3.523000000
C    -4.003000000    -5.602000000     3.820000000
H    -3.492000000    -6.559000000     3.884000000
C    -3.214000000    -4.422000000     4.017000000
O    -1.851000000    -4.536000000     4.334000000
C    -0.949000000    -4.770000000     3.342000000
C     0.277000000    -5.359000000     3.695000000
H     0.529000000    -5.703000000     4.695000000
C     1.267000000    -5.501000000     2.764000000
O     2.562000000    -5.997000000     3.042000000
C     3.761000000    -5.481000000     2.602000000
C     4.123000000    -4.131000000     2.872000000
H     3.531000000    -3.492000000     3.523000000
C     4.555000000    -6.192000000     1.646000000
H     4.347000000    -7.220000000     1.361000000
C     5.728000000    -5.672000000     1.194000000
H     6.384000000    -6.186000000     0.497000000
C     6.106000000    -4.392000000     1.513000000
H     7.102000000    -4.029000000     1.273000000
C     5.337000000    -3.569000000     2.337000000
O     5.655000000    -2.249000000     2.549000000
C     5.365000000    -1.146000000     1.724000000
C     5.740000000     0.065000000     2.243000000
H     6.198000000     0.250000000     3.211000000
C     5.574000000     1.174000000     1.450000000
O     5.846000000     2.396000000     2.000000000
C     5.636000000     3.623000000     1.338000000
C     6.799000000     4.233000000     0.894000000
H     7.779000000     3.771000000     0.980000000
C     6.734000000     5.591000000     0.623000000
H     7.664000000     6.113000000     0.412000000
C     5.559000000     6.354000000     0.719000000
H     5.710000000     7.423000000     0.590000000
C     4.403000000     5.689000000     1.087000000
C     4.428000000     4.296000000     1.301000000
H     3.583000000     3.905000000     1.862000000
C     1.982000000    -0.839000000     2.534000000
H     2.288000000    -1.686000000     3.143000000
C     1.640000000    -1.093000000     1.256000000
H     1.779000000    -2.120000000     0.926000000
C     1.114000000    -0.092000000     0.456000000
H     1.009000000    -0.405000000    -0.580000000
C     0.924000000     1.163000000     1.020000000
H     0.565000000     1.973000000     0.390000000
C     1.267000000     1.508000000     2.301000000
H     1.263000000     2.541000000     2.639000000
C     1.837000000     0.475000000     3.120000000
C     2.392000000     0.709000000     4.486000000
O     1.964000000     1.596000000     5.126000000
O     3.189000000    -0.113000000     4.973000000
O     5.857000000     1.293000000     7.074000000
H     5.986000000     0.707000000     6.329000000
H     5.195000000     1.918000000     6.777000000
O     3.266000000     2.967000000    10.088000000
H     3.184000000     3.403000000     9.240000000
H     4.208000000     2.855000000    10.211000000
O     5.351000000    -1.698000000     5.418000000
H     4.619000000    -1.110000000     5.232000000
H     5.682000000    -1.948000000     4.556000000
O     0.529000000    -0.839000000    10.250000000
H     0.223000000    -1.205000000     9.420000000
H     0.763000000     0.065000000    10.040000000
O     5.899000000     2.133000000     9.678000000
H     6.596000000     1.580000000    10.030000000
H     5.843000000     1.889000000     8.755000000
O     2.227000000     5.368000000     6.872000000
H     2.149000000     5.790000000     7.728000000
H     1.343000000     5.399000000     6.508000000
O    -0.538000000     2.779000000     5.224000000
H     0.328000000     2.370000000     5.237000000
H    -1.129000000     2.078000000     4.950000000
O     1.757000000     0.343000000     7.859000000
H     2.161000000     0.422000000     6.995000000
H     2.399000000    -0.139000000     8.380000000
O     0.197000000     2.579000000     7.828000000
H     0.929000000     1.963000000     7.858000000
H     0.128000000     2.825000000     6.906000000
O     2.056000000    -2.644000000     5.713000000
H     2.507000000    -1.867000000     5.382000000
H     2.738000000    -3.145000000     6.160000000
O     4.483000000    -0.571000000     8.620000000
H     4.957000000     0.055000000     8.073000000
H     5.164000000    -1.003000000     9.135000000
O    -0.788000000    -2.210000000     5.079000000
H     0.091000000    -2.488000000     5.339000000
H    -1.211000000    -3.010000000     4.769000000
O     3.582000000     3.075000000     6.583000000
H     3.229000000     3.960000000     6.672000000
H     2.906000000     2.593000000     6.108000000
O    -0.858000000    -0.620000000     7.289000000
H    -0.793000000    -1.121000000     6.476000000
H    -0.059000000    -0.092000000     7.310000000
O     0.237000000    -4.682000000     7.069000000
H     0.879000000    -4.416000000     6.410000000
H     0.680000000    -5.362000000     7.575000000
O     5.578000000     4.899000000     5.716000000
H     5.953000000     5.172000000     6.553000000
H     4.797000000     4.399000000     5.955000000
O    -1.361000000     0.448000000     3.990000000
H    -0.586000000     0.176000000     3.500000000
H    -1.691000000    -0.358000000     4.386000000
O     3.175000000     6.976000000     4.623000000
H     3.100000000     6.121000000     4.199000000
H     2.922000000     6.815000000     5.533000000
O     5.803000000    -3.559000000     7.509000000
H     5.539000000    -2.875000000     6.893000000
H     5.707000000    -3.154000000     8.371000000
