215
-1443.67747
C    -5.026000000    -0.453000000     1.684000000
H    -4.864000000    -1.417000000     1.208000000
C    -4.722000000     0.699000000     0.872000000
C    -4.756000000     1.965000000     1.479000000
H    -4.548000000     2.875000000     0.922000000
C    -4.236000000     0.429000000    -0.601000000
O    -4.996000000    -0.633000000    -1.259000000
H    -3.169000000     0.163000000    -0.583000000
O    -4.497000000     1.588000000    -1.407000000
C    -3.444000000     1.940000000    -2.087000000
C    -2.509000000     2.829000000    -1.570000000
H    -2.792000000     3.254000000    -0.610000000
C    -1.425000000     3.164000000    -2.311000000
O    -0.616000000     4.140000000    -1.867000000
C    -1.241000000     2.766000000    -3.642000000
C     0.014000000     3.219000000    -4.434000000
H    -0.044000000     3.089000000    -5.517000000
C     1.268000000     2.503000000    -3.983000000
C     1.735000000     1.357000000    -4.699000000
H     1.221000000     1.048000000    -5.605000000
H     0.140000000     4.278000000    -4.196000000
C    -2.105000000     1.753000000    -4.159000000
H    -1.995000000     1.391000000    -5.178000000
C    -3.266000000     1.430000000    -3.372000000
C    -4.110000000     0.249000000    -3.921000000
H    -3.979000000     0.074000000    -4.991000000
H    -5.167000000     0.450000000    -3.735000000
C    -3.722000000    -1.049000000    -3.300000000
C    -2.708000000    -1.816000000    -3.914000000
H    -2.280000000    -1.541000000    -4.875000000
C    -4.163000000    -1.411000000    -2.004000000
C    -3.656000000    -2.514000000    -1.381000000
H    -3.920000000    -2.772000000    -0.359000000
C    -2.662000000    -3.309000000    -2.029000000
O    -1.987000000    -4.209000000    -1.240000000
C    -0.688000000    -3.931000000    -0.690000000
C    -0.602000000    -4.521000000     0.714000000
C     0.634000000    -4.967000000     1.212000000
H     1.476000000    -5.055000000     0.529000000
C    -1.782000000    -4.668000000     1.467000000
H    -2.732000000    -4.270000000     1.120000000
O     0.279000000    -4.516000000    -1.622000000
H    -0.542000000    -2.850000000    -0.555000000
C    -2.172000000    -2.859000000    -3.323000000
C    -0.985000000    -3.499000000    -4.021000000
H    -1.075000000    -3.418000000    -5.107000000
H    -1.087000000    -4.568000000    -3.819000000
C     0.434000000    -3.051000000    -3.594000000
C     1.191000000    -2.217000000    -4.397000000
H     0.773000000    -1.718000000    -5.268000000
C     0.984000000    -3.624000000    -2.436000000
C     2.329000000    -3.287000000    -1.995000000
H     2.697000000    -3.684000000    -1.052000000
C     3.051000000    -2.411000000    -2.742000000
O     4.137000000    -1.911000000    -2.146000000
C     4.080000000    -0.621000000    -1.577000000
C     4.930000000    -0.541000000    -0.336000000
C     4.804000000    -1.563000000     0.552000000
H     4.176000000    -2.418000000     0.319000000
C     5.618000000     0.570000000     0.058000000
H     5.672000000     1.461000000    -0.563000000
O     4.499000000     0.310000000    -2.520000000
H     3.089000000    -0.432000000    -1.138000000
C     2.480000000    -1.892000000    -3.988000000
C     3.037000000    -0.793000000    -4.857000000
H     2.746000000    -0.839000000    -5.908000000
H     4.111000000    -0.951000000    -4.975000000
C     2.793000000     0.556000000    -4.212000000
C     3.514000000     1.042000000    -3.086000000
C     3.118000000     2.232000000    -2.476000000
H     3.832000000     2.780000000    -1.865000000
C     1.963000000     2.863000000    -2.838000000
O     1.625000000     3.941000000    -2.029000000
C     0.548000000     3.699000000    -1.170000000
H     0.518000000     2.613000000    -0.998000000
C     0.704000000     4.350000000     0.229000000
C    -0.345000000     5.117000000     0.786000000
H    -1.333000000     5.208000000     0.341000000
C     1.875000000     4.110000000     0.935000000
H     2.686000000     3.567000000     0.456000000
C     1.989000000     4.557000000     2.260000000
O     3.100000000     4.253000000     2.983000000
C     0.954000000     5.247000000     2.846000000
H     1.139000000     5.663000000     3.834000000
C    -0.170000000     5.606000000     2.129000000
O    -1.230000000     6.258000000     2.807000000
C    -2.544000000     5.883000000     2.589000000
C    -3.113000000     4.812000000     3.269000000
H    -2.392000000     4.204000000     3.811000000
C    -3.277000000     6.692000000     1.777000000
H    -2.776000000     7.489000000     1.232000000
C    -4.620000000     6.484000000     1.629000000
H    -5.192000000     7.204000000     1.049000000
C    -5.272000000     5.385000000     2.183000000
H    -6.322000000     5.264000000     1.928000000
C    -4.482000000     4.506000000     2.938000000
O    -5.082000000     3.348000000     3.431000000
C    -5.094000000     2.082000000     2.800000000
C    -5.259000000     1.019000000     3.636000000
H    -5.497000000     1.187000000     4.684000000
C    -5.251000000    -0.261000000     3.069000000
O    -5.421000000    -1.279000000     3.937000000
C    -5.401000000    -2.583000000     3.554000000
C    -4.191000000    -3.245000000     3.769000000
H    -3.384000000    -2.923000000     4.423000000
C    -6.416000000    -3.295000000     2.892000000
H    -7.318000000    -2.723000000     2.689000000
C    -6.250000000    -4.589000000     2.446000000
H    -7.101000000    -5.025000000     1.929000000
C    -4.969000000    -5.272000000     2.650000000
H    -4.657000000    -6.246000000     2.281000000
C    -3.994000000    -4.549000000     3.328000000
O    -2.833000000    -5.192000000     3.567000000
C    -1.666000000    -5.047000000     2.788000000
C    -0.487000000    -5.422000000     3.317000000
H    -0.511000000    -5.675000000     4.374000000
C     0.665000000    -5.411000000     2.536000000
O     1.855000000    -5.717000000     3.182000000
C     3.103000000    -5.487000000     2.630000000
C     3.758000000    -4.256000000     2.892000000
H     3.265000000    -3.568000000     3.573000000
C     3.722000000    -6.358000000     1.718000000
H     3.141000000    -7.213000000     1.380000000
C     4.932000000    -5.968000000     1.156000000
H     5.399000000    -6.646000000     0.447000000
C     5.565000000    -4.826000000     1.579000000
H     6.535000000    -4.642000000     1.125000000
C     4.926000000    -3.878000000     2.304000000
O     5.525000000    -2.703000000     2.608000000
C     5.595000000    -1.614000000     1.717000000
C     6.358000000    -0.440000000     2.101000000
H     6.810000000    -0.315000000     3.082000000
C     6.315000000     0.640000000     1.252000000
O     6.995000000     1.848000000     1.515000000
C     6.274000000     2.973000000     1.809000000
C     6.994000000     4.154000000     1.596000000
H     8.051000000     4.148000000     1.342000000
C     6.360000000     5.394000000     1.726000000
H     6.894000000     6.326000000     1.556000000
C     5.004000000     5.366000000     2.138000000
H     4.441000000     6.275000000     2.334000000
C     4.320000000     4.179000000     2.474000000
C     4.936000000     2.970000000     2.187000000
H     4.397000000     2.050000000     2.399000000
C     2.208000000    -0.619000000     2.484000000
H     3.165000000    -1.128000000     2.568000000
C     1.188000000    -0.985000000     1.597000000
H     1.409000000    -1.908000000     1.066000000
C     0.050000000    -0.273000000     1.337000000
H    -0.675000000    -0.673000000     0.679000000
C    -0.206000000     0.849000000     2.046000000
H    -1.065000000     1.499000000     1.901000000
C     0.717000000     1.239000000     3.058000000
H     0.563000000     2.125000000     3.669000000
C     1.922000000     0.520000000     3.281000000
C     2.847000000     1.005000000     4.350000000
O     2.674000000     2.031000000     4.991000000
O     3.863000000     0.383000000     4.639000000
O     7.386000000     1.434000000     7.908000000
H     7.105000000     1.151000000     7.038000000
H     6.676000000     1.995000000     8.218000000
O     4.527000000     3.186000000     9.514000000
H     4.183000000     2.972000000     8.647000000
H     5.260000000     3.777000000     9.342000000
O     6.304000000     1.212000000     5.397000000
H     6.265000000     2.036000000     4.910000000
H     5.446000000     0.811000000     5.259000000
O     2.404000000     1.258000000    10.241000000
H     1.678000000     1.881000000    10.229000000
H     2.971000000     1.536000000     9.522000000
O    -0.874000000    -3.532000000     7.280000000
H    -0.402000000    -3.351000000     6.467000000
H    -0.541000000    -4.383000000     7.566000000
O     2.051000000     4.601000000     7.479000000
H     1.946000000     3.741000000     7.886000000
H     2.482000000     4.420000000     6.644000000
O    -2.846000000    -0.211000000     6.694000000
H    -2.212000000     0.027000000     7.371000000
H    -2.320000000    -0.618000000     6.006000000
O     2.863000000     1.747000000     7.557000000
H     2.521000000     1.951000000     6.686000000
H     3.431000000     0.989000000     7.420000000
O    -0.786000000     0.677000000     8.417000000
H    -0.894000000     1.220000000     9.197000000
H    -0.319000000    -0.099000000     8.727000000
O     0.129000000     2.254000000     6.224000000
H     0.920000000     1.986000000     5.755000000
H     0.040000000     1.612000000     6.929000000
O     5.287000000     5.961000000     7.003000000
H     5.198000000     5.220000000     6.403000000
H     5.877000000     5.645000000     7.688000000
O     0.991000000    -3.358000000     5.278000000
H     1.808000000    -2.875000000     5.163000000
H     1.263000000    -4.272000000     5.364000000
O     4.592000000     3.759000000     5.687000000
H     4.319000000     3.866000000     4.776000000
H     4.036000000     3.055000000     6.022000000
O     3.187000000    -2.152000000     8.180000000
H     3.336000000    -3.054000000     8.465000000
H     3.426000000    -2.151000000     7.253000000
O    -0.920000000    -1.316000000     4.239000000
H    -0.831000000    -1.164000000     3.298000000
H    -0.140000000    -1.818000000     4.475000000
O     6.748000000    -2.750000000     5.074000000
H     7.333000000    -3.504000000     5.138000000
H     6.382000000    -2.805000000     4.192000000
O    -2.083000000     3.790000000     6.742000000
H    -1.411000000     3.369000000     6.206000000
H    -1.820000000     3.606000000     7.644000000
O     8.512000000    -0.582000000     5.499000000
H     7.897000000     0.125000000     5.308000000
H     8.010000000    -1.383000000     5.350000000
O     4.071000000    -2.152000000     5.466000000
H     4.984000000    -2.388000000     5.629000000
H     4.106000000    -1.238000000     5.184000000
