215
-1472.55934
C    -2.778000000     1.588000000     3.223000000
H    -3.074000000     0.584000000     2.933000000
C    -2.825000000     2.638000000     2.292000000
C    -2.459000000     3.961000000     2.556000000
H    -2.475000000     4.643000000     1.709000000
C    -3.281000000     2.298000000     0.861000000
O    -4.503000000     1.543000000     0.765000000
H    -2.431000000     1.724000000     0.465000000
O    -3.390000000     3.455000000     0.024000000
C    -2.743000000     3.528000000    -1.189000000
C    -1.528000000     4.294000000    -1.289000000
H    -1.042000000     4.863000000    -0.501000000
C    -0.777000000     4.045000000    -2.435000000
O     0.541000000     4.471000000    -2.283000000
C    -1.116000000     3.236000000    -3.505000000
C    -0.254000000     3.059000000    -4.747000000
H    -0.920000000     2.833000000    -5.582000000
C     0.592000000     1.832000000    -4.576000000
C     0.195000000     0.585000000    -5.044000000
H    -0.769000000     0.484000000    -5.534000000
H     0.352000000     3.948000000    -4.931000000
C    -2.389000000     2.653000000    -3.406000000
H    -2.807000000     2.015000000    -4.180000000
C    -3.188000000     2.774000000    -2.258000000
C    -4.582000000     2.047000000    -2.113000000
H    -5.085000000     2.043000000    -3.082000000
H    -5.342000000     2.662000000    -1.625000000
C    -4.497000000     0.664000000    -1.480000000
C    -4.384000000    -0.436000000    -2.288000000
H    -4.356000000    -0.333000000    -3.370000000
C    -4.422000000     0.484000000    -0.085000000
C    -4.336000000    -0.825000000     0.465000000
H    -4.310000000    -1.054000000     1.527000000
C    -4.189000000    -1.896000000    -0.402000000
O    -3.994000000    -3.127000000     0.181000000
C    -2.709000000    -3.593000000     0.348000000
C    -2.396000000    -4.344000000     1.593000000
C    -1.353000000    -5.228000000     1.669000000
H    -0.918000000    -5.713000000     0.799000000
C    -2.900000000    -3.749000000     2.785000000
H    -3.759000000    -3.083000000     2.762000000
O    -2.409000000    -4.484000000    -0.848000000
H    -1.974000000    -2.775000000     0.380000000
C    -4.222000000    -1.727000000    -1.781000000
C    -3.934000000    -2.791000000    -2.756000000
H    -4.292000000    -2.580000000    -3.766000000
H    -4.459000000    -3.682000000    -2.403000000
C    -2.461000000    -3.090000000    -2.835000000
C    -1.813000000    -2.490000000    -3.911000000
H    -2.377000000    -2.047000000    -4.727000000
C    -1.764000000    -3.847000000    -1.902000000
C    -0.396000000    -4.041000000    -2.007000000
H     0.124000000    -4.641000000    -1.265000000
C     0.297000000    -3.435000000    -3.038000000
O     1.697000000    -3.555000000    -2.989000000
C     2.388000000    -2.345000000    -2.458000000
C     3.478000000    -2.726000000    -1.543000000
C     3.317000000    -3.752000000    -0.590000000
H     2.430000000    -4.380000000    -0.568000000
C     4.572000000    -1.880000000    -1.417000000
H     4.660000000    -0.969000000    -2.004000000
O     2.779000000    -1.584000000    -3.575000000
H     1.708000000    -1.719000000    -1.862000000
C    -0.408000000    -2.689000000    -3.996000000
C     0.281000000    -2.025000000    -5.144000000
H    -0.397000000    -1.777000000    -5.963000000
H     0.966000000    -2.788000000    -5.518000000
C     0.823000000    -0.610000000    -4.627000000
C     2.052000000    -0.483000000    -3.876000000
C     2.495000000     0.815000000    -3.494000000
H     3.453000000     0.960000000    -3.003000000
C     1.758000000     1.956000000    -3.781000000
O     2.158000000     3.056000000    -3.118000000
C     1.498000000     3.456000000    -1.894000000
H     0.901000000     2.607000000    -1.528000000
C     2.482000000     4.052000000    -0.893000000
C     2.072000000     5.118000000    -0.144000000
H     1.093000000     5.586000000    -0.208000000
C     3.677000000     3.354000000    -0.689000000
H     3.947000000     2.605000000    -1.429000000
C     4.428000000     3.612000000     0.419000000
O     5.599000000     2.975000000     0.784000000
C     4.010000000     4.645000000     1.233000000
H     4.647000000     4.921000000     2.070000000
C     2.917000000     5.454000000     0.967000000
O     2.591000000     6.377000000     1.852000000
C     1.278000000     6.758000000     2.153000000
C     0.510000000     6.001000000     3.050000000
H     0.962000000     5.173000000     3.589000000
C     0.644000000     7.782000000     1.379000000
H     1.306000000     8.158000000     0.603000000
C    -0.713000000     8.035000000     1.610000000
H    -1.187000000     8.768000000     0.962000000
C    -1.464000000     7.364000000     2.552000000
H    -2.508000000     7.595000000     2.746000000
C    -0.841000000     6.302000000     3.222000000
O    -1.556000000     5.530000000     4.091000000
C    -1.924000000     4.198000000     3.814000000
C    -2.032000000     3.273000000     4.810000000
H    -1.875000000     3.655000000     5.815000000
C    -2.462000000     1.988000000     4.506000000
O    -2.548000000     1.099000000     5.546000000
C    -3.332000000    -0.044000000     5.365000000
C    -2.778000000    -1.292000000     5.286000000
H    -1.707000000    -1.478000000     5.320000000
C    -4.705000000     0.178000000     5.223000000
H    -5.108000000     1.187000000     5.252000000
C    -5.539000000    -0.881000000     5.097000000
H    -6.607000000    -0.720000000     4.973000000
C    -5.102000000    -2.145000000     5.095000000
H    -5.818000000    -2.962000000     5.127000000
C    -3.722000000    -2.348000000     5.251000000
O    -3.149000000    -3.594000000     5.182000000
C    -2.476000000    -4.115000000     4.066000000
C    -1.506000000    -5.113000000     4.115000000
H    -1.068000000    -5.409000000     5.065000000
C    -0.907000000    -5.586000000     2.952000000
O     0.186000000    -6.442000000     3.118000000
C     1.044000000    -6.623000000     2.064000000
C     2.142000000    -5.806000000     1.876000000
H     2.327000000    -4.971000000     2.546000000
C     0.810000000    -7.731000000     1.272000000
H    -0.078000000    -8.353000000     1.353000000
C     1.767000000    -8.000000000     0.284000000
H     1.633000000    -8.907000000    -0.300000000
C     2.953000000    -7.246000000     0.152000000
H     3.709000000    -7.689000000    -0.491000000
C     3.129000000    -6.147000000     0.991000000
O     4.293000000    -5.342000000     0.959000000
C     4.348000000    -4.186000000     0.230000000
C     5.499000000    -3.426000000     0.265000000
H     6.361000000    -3.689000000     0.873000000
C     5.618000000    -2.258000000    -0.527000000
O     6.765000000    -1.568000000    -0.348000000
C     6.871000000    -0.195000000    -0.582000000
C     7.779000000     0.298000000    -1.461000000
H     8.418000000    -0.385000000    -2.015000000
C     7.979000000     1.696000000    -1.675000000
H     8.601000000     2.159000000    -2.437000000
C     7.120000000     2.560000000    -0.949000000
H     7.187000000     3.600000000    -1.259000000
C     6.246000000     2.052000000     0.008000000
C     6.080000000     0.666000000     0.162000000
H     5.336000000     0.312000000     0.871000000
C     0.596000000    -1.971000000     2.719000000
H     0.199000000    -2.447000000     3.612000000
C    -0.166000000    -1.276000000     1.798000000
H    -1.251000000    -1.226000000     1.856000000
C     0.345000000    -0.503000000     0.763000000
H    -0.237000000     0.158000000     0.069000000
C     1.737000000    -0.371000000     0.657000000
H     2.293000000     0.200000000    -0.082000000
C     2.552000000    -1.031000000     1.596000000
H     3.587000000    -0.702000000     1.630000000
C     2.037000000    -1.773000000     2.640000000
C     2.965000000    -2.313000000     3.771000000
O     4.181000000    -2.290000000     3.692000000
O     2.394000000    -2.749000000     4.739000000
O     6.814000000    -1.936000000     7.885000000
H     6.510000000    -1.116000000     8.274000000
H     6.640000000    -2.597000000     8.555000000
O     6.213000000    -0.955000000     2.659000000
H     6.810000000    -1.692000000     2.530000000
H     5.399000000    -1.357000000     2.965000000
O     2.018000000    -1.826000000     9.115000000
H     1.765000000    -1.545000000     8.236000000
H     1.853000000    -1.061000000     9.667000000
O     1.486000000    -7.079000000     6.286000000
H     2.073000000    -7.802000000     6.066000000
H     2.036000000    -6.298000000     6.227000000
O     4.236000000    -1.347000000     6.424000000
H     5.103000000    -1.606000000     6.111000000
H     3.626000000    -1.840000000     5.876000000
O    -0.232000000     0.754000000     6.697000000
H    -1.165000000     0.862000000     6.509000000
H    -0.058000000     1.373000000     7.406000000
O    -1.969000000    -1.865000000     8.209000000
H    -1.204000000    -1.779000000     7.641000000
H    -2.352000000    -2.709000000     7.969000000
O     4.546000000     1.332000000     5.354000000
H     4.152000000     0.482000000     5.552000000
H     5.465000000     1.134000000     5.176000000
O     3.336000000    -5.168000000     5.762000000
H     3.169000000    -4.279000000     5.447000000
H     4.175000000    -5.407000000     5.369000000
O     7.366000000    -6.392000000     2.343000000
H     8.076000000    -6.946000000     2.667000000
H     7.676000000    -5.498000000     2.484000000
O     0.374000000    -2.040000000     6.578000000
H     1.126000000    -2.430000000     6.134000000
H     0.569000000    -1.103000000     6.604000000
O     4.918000000    -7.557000000     3.427000000
H     4.619000000    -7.865000000     2.571000000
H     5.863000000    -7.449000000     3.326000000
O     8.045000000    -3.810000000     6.337000000
H     7.421000000    -3.384000000     6.925000000
H     7.497000000    -4.248000000     5.685000000
O     7.031000000     0.486000000     4.801000000
H     7.954000000     0.254000000     4.905000000
H     6.741000000    -0.021000000     4.043000000
O     4.294000000    -3.324000000     8.766000000
H     4.408000000    -2.935000000     7.899000000
H     3.442000000    -3.004000000     9.062000000
O     5.186000000     0.443000000     8.425000000
H     4.472000000     0.015000000     7.954000000
H     4.880000000     0.494000000     9.331000000
O     1.287000000     1.672000000     3.878000000
H     0.835000000     1.580000000     4.717000000
H     1.152000000     0.832000000     3.440000000
O     3.035000000     3.462000000     4.534000000
H     3.642000000     2.760000000     4.770000000
H     2.275000000     3.009000000     4.168000000
O     5.723000000    -4.434000000     4.277000000
H     5.431000000    -5.117000000     3.674000000
H     5.221000000    -3.660000000     4.024000000
