215
-1445.15862
C    -2.447000000     1.524000000     3.927000000
H    -2.962000000     0.585000000     3.742000000
C    -2.509000000     2.527000000     2.942000000
C    -1.903000000     3.753000000     3.290000000
H    -1.950000000     4.503000000     2.505000000
C    -3.071000000     2.253000000     1.645000000
O    -4.157000000     1.389000000     1.737000000
H    -2.293000000     1.782000000     1.027000000
O    -3.379000000     3.419000000     0.881000000
C    -2.856000000     3.406000000    -0.408000000
C    -1.827000000     4.175000000    -0.778000000
H    -1.310000000     4.696000000     0.024000000
C    -1.337000000     4.155000000    -2.081000000
O    -0.044000000     4.593000000    -2.290000000
C    -1.985000000     3.349000000    -3.097000000
C    -1.389000000     3.216000000    -4.522000000
H    -2.186000000     2.941000000    -5.216000000
C    -0.406000000     2.029000000    -4.507000000
C    -0.938000000     0.778000000    -4.792000000
H    -2.007000000     0.702000000    -4.972000000
H    -0.805000000     4.105000000    -4.772000000
C    -3.097000000     2.547000000    -2.724000000
H    -3.647000000     1.938000000    -3.436000000
C    -3.506000000     2.631000000    -1.360000000
C    -4.854000000     1.918000000    -0.950000000
H    -5.492000000     1.879000000    -1.835000000
H    -5.409000000     2.478000000    -0.195000000
C    -4.534000000     0.542000000    -0.435000000
C    -4.531000000    -0.474000000    -1.323000000
H    -4.721000000    -0.257000000    -2.371000000
C    -4.248000000     0.324000000     0.881000000
C    -3.875000000    -0.905000000     1.328000000
H    -3.694000000    -1.140000000     2.373000000
C    -3.954000000    -1.973000000     0.414000000
O    -3.554000000    -3.207000000     0.838000000
C    -2.250000000    -3.651000000     0.461000000
C    -1.569000000    -4.192000000     1.687000000
C    -0.397000000    -5.001000000     1.607000000
H    -0.070000000    -5.222000000     0.594000000
C    -1.992000000    -3.823000000     2.964000000
H    -2.855000000    -3.192000000     3.160000000
O    -2.332000000    -4.562000000    -0.577000000
H    -1.680000000    -2.751000000     0.189000000
C    -4.313000000    -1.812000000    -0.938000000
C    -4.388000000    -2.909000000    -1.987000000
H    -5.161000000    -2.630000000    -2.706000000
H    -4.752000000    -3.738000000    -1.378000000
C    -2.980000000    -3.166000000    -2.501000000
C    -2.553000000    -2.507000000    -3.634000000
H    -3.260000000    -1.806000000    -4.072000000
C    -2.091000000    -3.998000000    -1.816000000
C    -0.779000000    -4.172000000    -2.215000000
H    -0.097000000    -4.862000000    -1.724000000
C    -0.342000000    -3.425000000    -3.299000000
O     1.027000000    -3.585000000    -3.558000000
C     1.841000000    -2.407000000    -3.014000000
C     3.205000000    -2.674000000    -2.372000000
C     3.428000000    -3.950000000    -1.995000000
H     2.721000000    -4.721000000    -2.291000000
C     4.118000000    -1.636000000    -2.121000000
H     3.907000000    -0.637000000    -2.492000000
O     2.010000000    -1.377000000    -4.131000000
H     1.302000000    -1.977000000    -2.157000000
C    -1.227000000    -2.603000000    -4.038000000
C    -0.700000000    -1.745000000    -5.177000000
H    -1.514000000    -1.613000000    -5.892000000
H     0.113000000    -2.277000000    -5.675000000
C    -0.125000000    -0.370000000    -4.753000000
C     1.197000000    -0.324000000    -4.321000000
C     1.669000000     0.939000000    -4.018000000
H     2.660000000     1.017000000    -3.578000000
C     0.867000000     2.107000000    -4.070000000
O     1.387000000     3.269000000    -3.405000000
C     0.907000000     3.580000000    -2.074000000
H     0.478000000     2.735000000    -1.516000000
C     2.051000000     4.195000000    -1.298000000
C     1.706000000     5.013000000    -0.176000000
H     0.676000000     5.272000000     0.059000000
C     3.369000000     3.819000000    -1.541000000
H     3.673000000     3.021000000    -2.213000000
C     4.369000000     4.278000000    -0.716000000
O     5.665000000     3.798000000    -0.745000000
C     3.997000000     5.194000000     0.232000000
H     4.775000000     5.685000000     0.811000000
C     2.735000000     5.563000000     0.546000000
O     2.501000000     6.488000000     1.600000000
C     1.299000000     6.784000000     2.064000000
C     0.799000000     5.865000000     3.021000000
H     1.364000000     4.952000000     3.185000000
C     0.600000000     7.967000000     1.862000000
H     0.792000000     8.817000000     1.212000000
C    -0.503000000     8.296000000     2.658000000
H    -0.924000000     9.281000000     2.471000000
C    -1.033000000     7.394000000     3.555000000
H    -1.875000000     7.563000000     4.221000000
C    -0.373000000     6.136000000     3.757000000
O    -0.685000000     5.210000000     4.775000000
C    -1.320000000     3.977000000     4.511000000
C    -1.329000000     2.967000000     5.422000000
H    -0.822000000     3.122000000     6.371000000
C    -1.925000000     1.752000000     5.190000000
O    -1.833000000     0.779000000     6.176000000
C    -2.446000000    -0.443000000     6.189000000
C    -1.764000000    -1.503000000     5.528000000
H    -0.838000000    -1.239000000     5.024000000
C    -3.624000000    -0.611000000     6.864000000
H    -4.137000000     0.236000000     7.311000000
C    -4.296000000    -1.875000000     6.856000000
H    -5.281000000    -2.008000000     7.297000000
C    -3.597000000    -2.925000000     6.299000000
H    -4.043000000    -3.916000000     6.267000000
C    -2.361000000    -2.749000000     5.624000000
O    -1.579000000    -3.869000000     5.331000000
C    -1.225000000    -4.284000000     4.096000000
C    -0.235000000    -5.242000000     4.001000000
H     0.267000000    -5.614000000     4.890000000
C     0.234000000    -5.515000000     2.738000000
O     1.162000000    -6.493000000     2.600000000
C     1.889000000    -6.730000000     1.411000000
C     2.915000000    -5.913000000     0.991000000
H     3.276000000    -5.051000000     1.547000000
C     1.448000000    -7.770000000     0.597000000
H     0.586000000    -8.345000000     0.925000000
C     2.068000000    -8.103000000    -0.634000000
H     1.674000000    -8.934000000    -1.213000000
C     3.152000000    -7.321000000    -0.987000000
H     3.684000000    -7.551000000    -1.907000000
C     3.581000000    -6.207000000    -0.265000000
O     4.744000000    -5.511000000    -0.683000000
C     4.552000000    -4.200000000    -1.238000000
C     5.574000000    -3.240000000    -1.017000000
H     6.448000000    -3.509000000    -0.431000000
C     5.312000000    -1.951000000    -1.420000000
O     6.336000000    -1.036000000    -1.238000000
C     6.230000000     0.238000000    -1.759000000
C     6.711000000     0.427000000    -3.065000000
H     6.929000000    -0.437000000    -3.687000000
C     6.728000000     1.706000000    -3.604000000
H     7.107000000     1.760000000    -4.621000000
C     6.442000000     2.868000000    -2.811000000
H     6.575000000     3.921000000    -3.046000000
C     6.012000000     2.686000000    -1.489000000
C     5.980000000     1.318000000    -0.966000000
H     5.528000000     1.198000000     0.016000000
C     0.684000000    -1.220000000     1.509000000
H     0.220000000    -1.751000000     2.336000000
C    -0.120000000    -0.479000000     0.664000000
H    -1.193000000    -0.351000000     0.779000000
C     0.481000000     0.153000000    -0.368000000
H    -0.069000000     0.728000000    -1.005000000
C     1.872000000     0.248000000    -0.500000000
H     2.373000000     0.626000000    -1.388000000
C     2.666000000    -0.388000000     0.417000000
H     3.744000000    -0.432000000     0.287000000
C     2.063000000    -1.163000000     1.405000000
C     2.986000000    -1.890000000     2.392000000
O     4.201000000    -1.761000000     2.312000000
O     2.541000000    -2.422000000     3.403000000
O     2.093000000    -1.870000000     8.245000000
H     2.347000000    -1.914000000     7.323000000
H     1.532000000    -1.096000000     8.303000000
O     5.835000000    -4.714000000     2.054000000
H     5.200000000    -5.047000000     2.688000000
H     5.311000000    -4.207000000     1.434000000
O     5.324000000     0.474000000     4.910000000
H     5.382000000     0.361000000     3.961000000
H     5.286000000    -0.418000000     5.254000000
O     5.295000000    -2.567000000     4.896000000
H     4.632000000    -2.264000000     4.276000000
H     5.530000000    -3.442000000     4.588000000
O     6.413000000     1.663000000     2.418000000
H     6.088000000     2.523000000     2.685000000
H     7.119000000     1.855000000     1.801000000
O     1.708000000     1.371000000     5.010000000
H     1.597000000     1.752000000     4.139000000
H     2.471000000     1.821000000     5.373000000
O     8.812000000    -3.189000000     1.853000000
H     7.984000000    -2.734000000     2.008000000
H     8.677000000    -3.657000000     1.029000000
O     5.008000000     3.629000000     3.501000000
H     5.161000000     4.560000000     3.338000000
H     4.074000000     3.507000000     3.330000000
O     3.817000000    -4.975000000     3.910000000
H     3.347000000    -5.469000000     4.582000000
H     3.390000000    -4.118000000     3.900000000
O     4.070000000     2.763000000     6.106000000
H     4.022000000     3.315000000     5.325000000
H     4.640000000     2.037000000     5.852000000
O     1.997000000    -1.328000000     5.660000000
H     2.282000000    -1.783000000     4.868000000
H     1.942000000    -0.408000000     5.401000000
O     6.782000000    -0.926000000     2.389000000
H     6.644000000     0.018000000     2.319000000
H     5.900000000    -1.298000000     2.384000000
O     4.967000000    -8.283000000     3.886000000
H     5.096000000    -7.399000000     4.229000000
H     5.829000000    -8.694000000     3.951000000
O     6.413000000    -2.848000000     7.490000000
H     6.149000000    -2.652000000     6.591000000
H     6.344000000    -2.010000000     7.947000000
O     2.935000000    -6.693000000     6.001000000
H     3.793000000    -6.847000000     6.397000000
H     2.610000000    -5.903000000     6.433000000
O     1.326000000     2.397000000     2.497000000
H     0.400000000     2.424000000     2.258000000
H     1.685000000     1.672000000     1.983000000
O     8.138000000     1.712000000     4.730000000
H     7.272000000     1.401000000     4.467000000
H     8.417000000     2.280000000     4.011000000
O     2.155000000    -4.074000000     6.456000000
H     2.466000000    -3.679000000     7.271000000
H     1.936000000    -3.329000000     5.897000000
O     7.746000000    -6.641000000     1.998000000
H     8.396000000    -6.234000000     2.572000000
H     7.049000000    -5.989000000     1.925000000
