215
-1410.74653
C    -0.835000000    -0.620000000     4.824000000
H    -1.470000000    -1.359000000     4.341000000
C    -1.107000000     0.680000000     4.577000000
C    -0.341000000     1.768000000     5.046000000
H    -0.473000000     2.822000000     4.816000000
C    -2.209000000     1.055000000     3.558000000
O    -3.344000000     0.037000000     3.609000000
H    -1.682000000     0.843000000     2.616000000
O    -2.690000000     2.362000000     3.590000000
C    -2.884000000     3.084000000     2.443000000
C    -1.829000000     3.921000000     2.052000000
H    -1.012000000     4.171000000     2.724000000
C    -1.834000000     4.437000000     0.751000000
O    -0.661000000     5.088000000     0.413000000
C    -2.829000000     4.149000000    -0.151000000
C    -2.681000000     4.692000000    -1.589000000
H    -3.537000000     5.079000000    -2.147000000
C    -1.940000000     3.743000000    -2.603000000
C    -2.659000000     2.832000000    -3.398000000
H    -3.745000000     2.874000000    -3.400000000
H    -2.136000000     5.636000000    -1.530000000
C    -3.827000000     3.276000000     0.203000000
H    -4.665000000     3.037000000    -0.446000000
C    -3.883000000     2.712000000     1.487000000
C    -4.981000000     1.781000000     1.870000000
H    -5.923000000     2.126000000     1.441000000
H    -5.083000000     1.842000000     2.955000000
C    -4.606000000     0.308000000     1.498000000
C    -5.127000000    -0.318000000     0.334000000
H    -5.809000000     0.168000000    -0.357000000
C    -3.878000000    -0.470000000     2.450000000
C    -3.619000000    -1.800000000     2.115000000
H    -3.006000000    -2.442000000     2.743000000
C    -3.915000000    -2.283000000     0.892000000
O    -3.367000000    -3.526000000     0.703000000
C    -2.351000000    -3.771000000    -0.279000000
C    -1.322000000    -4.767000000     0.193000000
C    -0.207000000    -5.028000000    -0.597000000
H    -0.018000000    -4.487000000    -1.520000000
C    -1.293000000    -5.170000000     1.503000000
H    -2.069000000    -4.747000000     2.134000000
O    -2.816000000    -3.965000000    -1.712000000
H    -1.745000000    -2.854000000    -0.350000000
C    -4.662000000    -1.562000000    -0.016000000
C    -5.054000000    -2.107000000    -1.353000000
H    -5.843000000    -1.454000000    -1.732000000
H    -5.508000000    -3.100000000    -1.328000000
C    -3.946000000    -1.984000000    -2.384000000
C    -3.792000000    -0.753000000    -3.096000000
H    -4.529000000     0.042000000    -3.012000000
C    -2.899000000    -2.931000000    -2.582000000
C    -1.784000000    -2.691000000    -3.359000000
H    -1.052000000    -3.494000000    -3.389000000
C    -1.729000000    -1.569000000    -4.120000000
O    -0.540000000    -1.306000000    -4.787000000
C     0.450000000    -0.366000000    -4.215000000
C     1.844000000    -0.937000000    -4.382000000
C     2.127000000    -2.234000000    -4.550000000
H     1.358000000    -3.003000000    -4.526000000
C     2.953000000    -0.077000000    -4.245000000
H     2.655000000     0.953000000    -4.066000000
O     0.316000000     0.921000000    -4.848000000
H     0.332000000    -0.129000000    -3.148000000
C    -2.707000000    -0.570000000    -3.994000000
C    -2.645000000     0.759000000    -4.781000000
H    -3.647000000     1.143000000    -4.976000000
H    -2.130000000     0.479000000    -5.703000000
C    -1.899000000     1.887000000    -4.097000000
C    -0.476000000     1.898000000    -4.200000000
C     0.226000000     2.820000000    -3.441000000
H     1.307000000     2.853000000    -3.539000000
C    -0.511000000     3.693000000    -2.617000000
O     0.210000000     4.481000000    -1.767000000
C     0.322000000     4.302000000    -0.305000000
H    -0.053000000     3.276000000    -0.177000000
C     1.765000000     4.283000000     0.209000000
C     2.073000000     4.582000000     1.569000000
H     1.284000000     4.677000000     2.311000000
C     2.800000000     3.961000000    -0.652000000
H     2.579000000     3.801000000    -1.704000000
C     4.119000000     4.119000000    -0.309000000
O     5.163000000     3.899000000    -1.206000000
C     4.441000000     4.550000000     0.946000000
H     5.497000000     4.643000000     1.192000000
C     3.438000000     4.772000000     1.895000000
O     3.784000000     5.129000000     3.169000000
C     2.895000000     4.969000000     4.264000000
C     2.511000000     3.699000000     4.790000000
H     2.594000000     2.772000000     4.228000000
C     2.691000000     6.103000000     5.153000000
H     3.068000000     7.069000000     4.827000000
C     1.956000000     5.985000000     6.310000000
H     1.703000000     6.861000000     6.902000000
C     1.560000000     4.770000000     6.779000000
H     1.023000000     4.645000000     7.715000000
C     1.858000000     3.584000000     6.062000000
O     1.482000000     2.399000000     6.599000000
C     0.697000000     1.463000000     5.945000000
C     0.927000000     0.100000000     6.171000000
H     1.839000000    -0.204000000     6.675000000
C     0.252000000    -1.006000000     5.631000000
O     0.710000000    -2.295000000     5.876000000
C    -0.008000000    -3.431000000     5.559000000
C     0.329000000    -4.344000000     4.542000000
H     1.123000000    -4.162000000     3.823000000
C    -1.091000000    -3.739000000     6.390000000
H    -1.242000000    -3.200000000     7.321000000
C    -1.892000000    -4.807000000     6.117000000
H    -2.682000000    -5.181000000     6.762000000
C    -1.544000000    -5.623000000     5.044000000
H    -2.114000000    -6.543000000     4.941000000
C    -0.447000000    -5.419000000     4.304000000
O    -0.216000000    -6.294000000     3.245000000
C    -0.242000000    -5.955000000     1.958000000
C     0.748000000    -6.449000000     1.068000000
H     1.486000000    -7.172000000     1.405000000
C     0.826000000    -5.818000000    -0.161000000
O     2.030000000    -5.898000000    -0.905000000
C     2.142000000    -5.904000000    -2.312000000
C     2.896000000    -4.912000000    -2.936000000
H     3.312000000    -4.044000000    -2.431000000
C     1.674000000    -6.982000000    -3.078000000
H     1.095000000    -7.772000000    -2.606000000
C     1.928000000    -7.073000000    -4.454000000
H     1.605000000    -7.965000000    -4.985000000
C     2.584000000    -6.057000000    -5.079000000
H     2.790000000    -6.172000000    -6.140000000
C     3.085000000    -4.977000000    -4.324000000
O     3.780000000    -4.000000000    -4.968000000
C     3.467000000    -2.674000000    -4.669000000
C     4.505000000    -1.797000000    -4.662000000
H     5.511000000    -2.209000000    -4.672000000
C     4.264000000    -0.478000000    -4.425000000
O     5.320000000     0.369000000    -4.349000000
C     5.108000000     1.681000000    -4.095000000
C     4.503000000     2.455000000    -5.048000000
H     4.392000000     2.052000000    -6.052000000
C     4.207000000     3.795000000    -4.808000000
H     3.735000000     4.383000000    -5.591000000
C     4.532000000     4.318000000    -3.512000000
H     4.437000000     5.356000000    -3.202000000
C     4.994000000     3.426000000    -2.524000000
C     5.360000000     2.126000000    -2.839000000
H     5.721000000     1.537000000    -1.999000000
C     2.094000000    -2.389000000     0.629000000
H     2.302000000    -3.346000000     1.101000000
C     0.748000000    -1.898000000     0.763000000
H    -0.018000000    -2.456000000     1.294000000
C     0.440000000    -0.663000000     0.144000000
H    -0.536000000    -0.182000000     0.309000000
C     1.403000000     0.052000000    -0.700000000
H     1.232000000     1.011000000    -1.183000000
C     2.684000000    -0.562000000    -0.751000000
H     3.453000000    -0.045000000    -1.320000000
C     3.062000000    -1.795000000    -0.143000000
C     4.441000000    -2.399000000    -0.064000000
O     5.357000000    -1.680000000    -0.401000000
O     4.718000000    -3.395000000     0.536000000
O     9.934000000    -0.303000000    -1.673000000
H    10.148000000    -0.403000000    -2.601000000
H     9.294000000    -0.993000000    -1.500000000
O     7.258000000    -5.828000000     3.776000000
H     7.236000000    -4.989000000     4.235000000
H     7.391000000    -5.595000000     2.857000000
O     4.841000000    -2.284000000     3.052000000
H     5.213000000    -1.412000000     3.188000000
H     4.948000000    -2.445000000     2.114000000
O     8.274000000     3.121000000     0.974000000
H     7.763000000     2.327000000     1.134000000
H     8.526000000     3.062000000     0.052000000
O     7.941000000    -2.032000000     0.795000000
H     8.263000000    -1.236000000     1.217000000
H     7.055000000    -1.809000000     0.508000000
O     5.712000000     0.913000000     0.405000000
H     5.354000000     0.081000000     0.097000000
H     4.975000000     1.522000000     0.360000000
O     7.112000000    -4.985000000     0.565000000
H     7.590000000    -4.168000000     0.418000000
H     6.203000000    -4.771000000     0.356000000
O     7.925000000    -7.452000000     0.188000000
H     7.752000000    -7.786000000    -0.692000000
H     7.838000000    -6.503000000     0.106000000
O     8.679000000    -0.366000000     3.550000000
H     8.802000000    -1.002000000     4.255000000
H     9.476000000    -0.436000000     3.024000000
O     6.599000000    -3.647000000     5.012000000
H     5.974000000    -4.007000000     5.642000000
H     6.059000000    -3.148000000     4.399000000
O     7.390000000    -1.819000000    -2.244000000
H     7.255000000    -2.734000000    -2.491000000
H     6.708000000    -1.642000000    -1.597000000
O     8.021000000    -4.868000000    -2.914000000
H     7.633000000    -5.576000000    -2.399000000
H     7.877000000    -5.126000000    -3.824000000
O     4.034000000    -5.887000000     0.945000000
H     3.615000000    -6.048000000     0.099000000
H     4.231000000    -4.951000000     0.940000000
O     9.860000000    -3.478000000     2.687000000
H    10.321000000    -2.811000000     3.196000000
H     9.530000000    -3.009000000     1.921000000
O     3.681000000    -4.932000000     3.486000000
H     4.019000000    -5.227000000     2.641000000
H     3.912000000    -4.004000000     3.526000000
O     8.091000000     0.002000000    -4.625000000
H     7.534000000    -0.590000000    -4.119000000
H     8.984000000    -0.269000000    -4.413000000
O     5.938000000     0.321000000     3.238000000
H     6.788000000    -0.039000000     3.494000000
H     6.105000000     0.759000000     2.404000000
O     5.556000000    -8.106000000     1.192000000
H     6.452000000    -7.822000000     1.015000000
H     5.053000000    -7.293000000     1.244000000
O     1.999000000     1.271000000     2.111000000
H     1.308000000     1.166000000     2.766000000
H     1.805000000     0.606000000     1.450000000
