215
-1469.52200
C    -2.481000000    -1.128000000     4.589000000
H    -3.044000000    -1.871000000     4.030000000
C    -2.505000000     0.206000000     4.101000000
C    -1.753000000     1.187000000     4.762000000
H    -1.697000000     2.197000000     4.363000000
C    -3.132000000     0.540000000     2.736000000
O    -4.200000000    -0.369000000     2.493000000
H    -2.520000000     0.550000000     1.822000000
O    -3.694000000     1.873000000     2.865000000
C    -3.499000000     2.686000000     1.745000000
C    -2.347000000     3.410000000     1.728000000
H    -1.715000000     3.531000000     2.605000000
C    -1.951000000     4.069000000     0.592000000
O    -0.729000000     4.687000000     0.605000000
C    -2.752000000     4.013000000    -0.557000000
C    -2.312000000     4.648000000    -1.883000000
H    -3.208000000     4.862000000    -2.470000000
C    -1.316000000     3.868000000    -2.716000000
C    -1.761000000     3.019000000    -3.688000000
H    -2.822000000     2.792000000    -3.765000000
H    -1.900000000     5.623000000    -1.615000000
C    -3.860000000     3.190000000    -0.574000000
H    -4.460000000     3.083000000    -1.474000000
C    -4.261000000     2.502000000     0.567000000
C    -5.402000000     1.500000000     0.422000000
H    -6.090000000     1.815000000    -0.365000000
H    -6.066000000     1.499000000     1.290000000
C    -4.915000000     0.060000000     0.200000000
C    -4.996000000    -0.483000000    -1.056000000
H    -5.461000000     0.063000000    -1.872000000
C    -4.465000000    -0.783000000     1.197000000
C    -3.973000000    -2.057000000     0.910000000
H    -3.436000000    -2.627000000     1.664000000
C    -4.005000000    -2.574000000    -0.380000000
O    -3.366000000    -3.761000000    -0.623000000
C    -1.955000000    -3.676000000    -0.928000000
C    -1.070000000    -4.639000000    -0.140000000
C     0.210000000    -4.938000000    -0.618000000
H     0.565000000    -4.422000000    -1.506000000
C    -1.515000000    -5.088000000     1.100000000
H    -2.531000000    -4.951000000     1.460000000
O    -1.831000000    -3.823000000    -2.378000000
H    -1.700000000    -2.637000000    -0.670000000
C    -4.517000000    -1.733000000    -1.383000000
C    -4.385000000    -2.212000000    -2.826000000
H    -5.083000000    -1.706000000    -3.496000000
H    -4.561000000    -3.284000000    -2.930000000
C    -2.991000000    -1.833000000    -3.370000000
C    -2.879000000    -0.665000000    -4.061000000
H    -3.701000000     0.039000000    -4.155000000
C    -1.868000000    -2.675000000    -3.183000000
C    -0.657000000    -2.373000000    -3.742000000
H     0.191000000    -3.050000000    -3.684000000
C    -0.495000000    -1.219000000    -4.447000000
O     0.727000000    -0.920000000    -4.933000000
C     1.479000000     0.078000000    -4.236000000
C     2.955000000    -0.399000000    -4.115000000
C     3.265000000    -1.700000000    -3.711000000
H     2.500000000    -2.465000000    -3.614000000
C     4.042000000     0.504000000    -4.173000000
H     3.765000000     1.516000000    -4.458000000
O     1.306000000     1.417000000    -4.761000000
H     1.083000000     0.125000000    -3.211000000
C    -1.591000000    -0.357000000    -4.586000000
C    -1.437000000     1.042000000    -5.240000000
H    -2.390000000     1.441000000    -5.595000000
H    -0.780000000     0.934000000    -6.105000000
C    -0.878000000     2.147000000    -4.264000000
C     0.490000000     2.313000000    -4.134000000
C     0.994000000     3.191000000    -3.202000000
H     2.063000000     3.282000000    -3.027000000
C     0.072000000     3.978000000    -2.507000000
O     0.621000000     4.673000000    -1.479000000
C     0.271000000     4.028000000    -0.193000000
H     0.021000000     2.970000000    -0.358000000
C     1.598000000     4.102000000     0.555000000
C     1.641000000     3.881000000     1.943000000
H     0.714000000     3.723000000     2.489000000
C     2.889000000     4.152000000    -0.080000000
H     2.958000000     4.167000000    -1.164000000
C     4.089000000     4.042000000     0.639000000
O     5.351000000     3.927000000     0.123000000
C     4.009000000     3.905000000     2.010000000
H     4.976000000     3.795000000     2.493000000
C     2.837000000     3.829000000     2.677000000
O     2.825000000     3.602000000     4.047000000
C     1.797000000     3.890000000     4.944000000
C     1.058000000     2.857000000     5.486000000
H     1.279000000     1.836000000     5.187000000
C     1.494000000     5.164000000     5.391000000
H     2.167000000     5.917000000     4.990000000
C     0.340000000     5.432000000     6.252000000
H     0.244000000     6.465000000     6.577000000
C    -0.356000000     4.345000000     6.755000000
H    -1.230000000     4.484000000     7.387000000
C    -0.031000000     3.051000000     6.303000000
O    -0.638000000     1.935000000     6.754000000
C    -1.060000000     0.916000000     5.975000000
C    -1.085000000    -0.362000000     6.460000000
H    -0.550000000    -0.552000000     7.387000000
C    -1.760000000    -1.385000000     5.776000000
O    -1.730000000    -2.620000000     6.476000000
C    -2.069000000    -3.754000000     5.777000000
C    -1.221000000    -4.443000000     4.870000000
H    -0.165000000    -4.198000000     4.788000000
C    -3.417000000    -4.133000000     5.873000000
H    -4.141000000    -3.532000000     6.417000000
C    -3.940000000    -5.202000000     5.132000000
H    -4.978000000    -5.470000000     5.311000000
C    -3.105000000    -5.845000000     4.220000000
H    -3.552000000    -6.628000000     3.613000000
C    -1.753000000    -5.489000000     4.096000000
O    -0.953000000    -6.217000000     3.217000000
C    -0.567000000    -5.701000000     1.964000000
C     0.691000000    -6.073000000     1.460000000
H     1.375000000    -6.636000000     2.090000000
C     1.084000000    -5.728000000     0.136000000
O     2.405000000    -6.014000000    -0.186000000
C     2.953000000    -5.716000000    -1.403000000
C     3.749000000    -4.598000000    -1.573000000
H     3.964000000    -3.993000000    -0.696000000
C     2.923000000    -6.704000000    -2.376000000
H     2.273000000    -7.569000000    -2.274000000
C     3.527000000    -6.440000000    -3.627000000
H     3.397000000    -7.164000000    -4.427000000
C     4.284000000    -5.254000000    -3.785000000
H     4.769000000    -5.053000000    -4.736000000
C     4.412000000    -4.391000000    -2.770000000
O     5.115000000    -3.281000000    -3.018000000
C     4.623000000    -2.090000000    -3.448000000
C     5.631000000    -1.129000000    -3.373000000
H     6.681000000    -1.379000000    -3.246000000
C     5.333000000     0.208000000    -3.771000000
O     6.267000000     1.236000000    -3.860000000
C     5.932000000     2.441000000    -3.248000000
C     6.083000000     3.618000000    -3.979000000
H     6.412000000     3.500000000    -5.008000000
C     5.990000000     4.863000000    -3.407000000
H     6.149000000     5.721000000    -4.055000000
C     5.683000000     4.945000000    -2.043000000
H     5.739000000     5.916000000    -1.557000000
C     5.585000000     3.851000000    -1.236000000
C     5.727000000     2.594000000    -1.865000000
H     5.627000000     1.750000000    -1.188000000
C     0.844000000    -1.878000000     1.563000000
H     0.966000000    -2.787000000     2.147000000
C    -0.381000000    -1.329000000     1.286000000
H    -1.188000000    -1.765000000     1.869000000
C    -0.532000000    -0.330000000     0.285000000
H    -1.533000000     0.091000000     0.083000000
C     0.613000000     0.209000000    -0.305000000
H     0.504000000     1.065000000    -0.966000000
C     1.849000000    -0.330000000    -0.003000000
H     2.751000000    -0.017000000    -0.522000000
C     1.965000000    -1.409000000     0.864000000
C     3.403000000    -1.941000000     1.176000000
O     4.412000000    -1.476000000     0.694000000
O     3.499000000    -2.868000000     1.867000000
O     2.675000000    -0.211000000     4.452000000
H     1.960000000     0.297000000     4.068000000
H     3.366000000     0.431000000     4.613000000
O     5.283000000     1.412000000     3.837000000
H     5.652000000     1.361000000     2.956000000
H     5.636000000     2.225000000     4.198000000
O     6.645000000    -2.858000000     0.690000000
H     7.176000000    -2.364000000     0.066000000
H     5.838000000    -2.349000000     0.773000000
O     2.083000000    -0.771000000     7.028000000
H     2.214000000    -0.378000000     6.165000000
H     2.863000000    -0.526000000     7.524000000
O     8.049000000    -2.334000000     4.604000000
H     7.198000000    -2.206000000     4.187000000
H     7.969000000    -1.898000000     5.452000000
O     5.610000000    -1.245000000     4.023000000
H     4.875000000    -1.406000000     3.432000000
H     5.717000000    -0.294000000     4.018000000
O     7.031000000    -5.512000000    -0.372000000
H     7.909000000    -5.301000000    -0.054000000
H     6.488000000    -4.779000000    -0.082000000
O     7.426000000     3.307000000     3.109000000
H     7.604000000     2.665000000     2.422000000
H     7.722000000     4.140000000     2.741000000
O     2.623000000    -3.106000000     4.435000000
H     2.497000000    -2.167000000     4.568000000
H     2.948000000    -3.180000000     3.538000000
O     4.715000000    -3.412000000     6.100000000
H     5.400000000    -2.927000000     5.640000000
H     3.943000000    -3.325000000     5.541000000
O     4.096000000    -7.427000000     1.660000000
H     3.545000000    -6.888000000     1.092000000
H     4.259000000    -8.222000000     1.151000000
O     2.664000000    -6.836000000     6.302000000
H     3.168000000    -6.455000000     7.021000000
H     3.197000000    -6.675000000     5.524000000
O     6.007000000     0.832000000     1.144000000
H     6.780000000     0.597000000     0.631000000
H     5.437000000     0.065000000     1.082000000
O     5.535000000    -4.433000000     2.862000000
H     4.724000000    -4.101000000     2.477000000
H     6.225000000    -4.108000000     2.284000000
O     1.787000000    -3.494000000     7.128000000
H     2.083000000    -3.611000000     6.226000000
H     1.913000000    -2.561000000     7.302000000
O     4.554000000    -6.569000000     4.193000000
H     4.186000000    -7.065000000     3.462000000
H     4.881000000    -5.762000000     3.796000000
O     8.393000000     0.079000000    -0.056000000
H     9.287000000    -0.264000000    -0.046000000
H     8.486000000     0.978000000    -0.371000000
O     0.836000000     0.983000000     2.835000000
H     0.869000000     1.184000000     1.900000000
H     0.248000000     0.231000000     2.898000000
O     8.110000000    -3.329000000    -1.858000000
H     7.217000000    -3.669000000    -1.801000000
H     8.537000000    -3.643000000    -1.061000000
