215
-1435.37131
C    -1.950000000    -1.027000000     4.163000000
H    -2.151000000    -1.815000000     3.442000000
C    -2.478000000     0.257000000     3.990000000
C    -2.186000000     1.304000000     4.864000000
H    -2.568000000     2.314000000     4.745000000
C    -3.286000000     0.475000000     2.736000000
O    -4.221000000    -0.575000000     2.374000000
H    -2.546000000     0.381000000     1.928000000
O    -3.927000000     1.769000000     2.628000000
C    -3.659000000     2.463000000     1.485000000
C    -2.588000000     3.338000000     1.532000000
H    -2.168000000     3.635000000     2.489000000
C    -2.234000000     4.008000000     0.382000000
O    -1.181000000     4.869000000     0.373000000
C    -2.849000000     3.767000000    -0.784000000
C    -2.484000000     4.424000000    -2.106000000
H    -3.355000000     4.658000000    -2.722000000
C    -1.359000000     3.659000000    -2.835000000
C    -1.658000000     2.751000000    -3.883000000
H    -2.704000000     2.677000000    -4.168000000
H    -2.117000000     5.425000000    -1.869000000
C    -3.837000000     2.809000000    -0.863000000
H    -4.423000000     2.639000000    -1.763000000
C    -4.238000000     2.142000000     0.279000000
C    -5.359000000     1.186000000     0.262000000
H    -6.066000000     1.479000000    -0.518000000
H    -5.921000000     1.221000000     1.197000000
C    -4.912000000    -0.282000000     0.092000000
C    -4.933000000    -0.808000000    -1.197000000
H    -5.333000000    -0.175000000    -1.985000000
C    -4.373000000    -1.097000000     1.141000000
C    -3.926000000    -2.419000000     0.909000000
H    -3.489000000    -3.073000000     1.659000000
C    -3.936000000    -2.882000000    -0.423000000
O    -3.222000000    -4.010000000    -0.622000000
C    -1.835000000    -3.847000000    -1.067000000
C    -0.998000000    -4.972000000    -0.428000000
C     0.085000000    -5.493000000    -1.148000000
H     0.406000000    -5.085000000    -2.103000000
C    -1.192000000    -5.325000000     0.889000000
H    -1.930000000    -4.827000000     1.512000000
O    -1.789000000    -3.941000000    -2.504000000
H    -1.509000000    -2.860000000    -0.708000000
C    -4.369000000    -2.084000000    -1.484000000
C    -4.166000000    -2.357000000    -2.953000000
H    -4.930000000    -1.835000000    -3.533000000
H    -4.127000000    -3.394000000    -3.294000000
C    -2.740000000    -1.994000000    -3.460000000
C    -2.568000000    -0.830000000    -4.186000000
H    -3.401000000    -0.225000000    -4.535000000
C    -1.665000000    -2.770000000    -3.224000000
C    -0.354000000    -2.397000000    -3.596000000
H     0.486000000    -3.052000000    -3.373000000
C    -0.179000000    -1.262000000    -4.319000000
O     1.099000000    -0.923000000    -4.611000000
C     1.782000000     0.006000000    -3.834000000
C     3.197000000    -0.387000000    -3.395000000
C     3.496000000    -1.715000000    -3.149000000
H     2.752000000    -2.496000000    -3.292000000
C     4.196000000     0.578000000    -3.188000000
H     3.919000000     1.585000000    -3.491000000
O     1.651000000     1.269000000    -4.455000000
H     1.311000000    -0.027000000    -2.840000000
C    -1.322000000    -0.519000000    -4.689000000
C    -1.141000000     0.821000000    -5.350000000
H    -2.035000000     1.108000000    -5.906000000
H    -0.482000000     0.635000000    -6.200000000
C    -0.681000000     1.911000000    -4.449000000
C     0.678000000     2.056000000    -4.004000000
C     1.002000000     3.039000000    -3.047000000
H     1.981000000     3.137000000    -2.585000000
C     0.002000000     3.733000000    -2.415000000
O     0.343000000     4.689000000    -1.486000000
C     0.088000000     4.353000000    -0.101000000
H    -0.064000000     3.264000000    -0.098000000
C     1.296000000     4.745000000     0.782000000
C     1.170000000     4.664000000     2.130000000
H     0.197000000     4.513000000     2.593000000
C     2.480000000     5.095000000     0.164000000
H     2.547000000     5.227000000    -0.913000000
C     3.641000000     5.105000000     0.980000000
O     4.857000000     5.282000000     0.411000000
C     3.564000000     4.880000000     2.354000000
H     4.444000000     4.776000000     2.986000000
C     2.305000000     4.715000000     2.960000000
O     2.226000000     4.545000000     4.326000000
C     0.970000000     4.599000000     5.006000000
C     0.442000000     3.338000000     5.533000000
H     1.016000000     2.431000000     5.363000000
C     0.212000000     5.709000000     5.245000000
H     0.521000000     6.652000000     4.803000000
C    -0.947000000     5.678000000     5.945000000
H    -1.530000000     6.580000000     6.119000000
C    -1.329000000     4.487000000     6.554000000
H    -2.144000000     4.449000000     7.272000000
C    -0.630000000     3.310000000     6.327000000
O    -0.959000000     2.103000000     6.815000000
C    -1.364000000     1.037000000     5.956000000
C    -0.809000000    -0.244000000     6.094000000
H    -0.171000000    -0.405000000     6.959000000
C    -1.165000000    -1.275000000     5.215000000
O    -0.633000000    -2.473000000     5.311000000
C    -1.250000000    -3.643000000     4.926000000
C    -0.546000000    -4.544000000     4.104000000
H     0.450000000    -4.317000000     3.731000000
C    -2.488000000    -4.015000000     5.385000000
H    -3.085000000    -3.361000000     6.016000000
C    -2.970000000    -5.260000000     5.205000000
H    -3.928000000    -5.538000000     5.637000000
C    -2.274000000    -6.173000000     4.429000000
H    -2.651000000    -7.186000000     4.303000000
C    -1.055000000    -5.815000000     3.784000000
O    -0.300000000    -6.529000000     2.914000000
C    -0.247000000    -6.156000000     1.554000000
C     0.790000000    -6.647000000     0.782000000
H     1.438000000    -7.410000000     1.207000000
C     0.986000000    -6.338000000    -0.514000000
O     2.041000000    -6.865000000    -1.148000000
C     2.781000000    -6.286000000    -2.078000000
C     3.477000000    -5.095000000    -1.797000000
H     3.220000000    -4.635000000    -0.846000000
C     2.909000000    -6.819000000    -3.358000000
H     2.442000000    -7.759000000    -3.641000000
C     3.897000000    -6.321000000    -4.199000000
H     4.111000000    -6.745000000    -5.177000000
C     4.571000000    -5.143000000    -3.862000000
H     5.148000000    -4.537000000    -4.555000000
C     4.365000000    -4.479000000    -2.644000000
O     4.983000000    -3.355000000    -2.257000000
C     4.720000000    -2.057000000    -2.581000000
C     5.581000000    -1.021000000    -2.169000000
H     6.502000000    -1.269000000    -1.649000000
C     5.364000000     0.279000000    -2.474000000
O     6.223000000     1.282000000    -2.033000000
C     5.905000000     2.619000000    -1.889000000
C     6.035000000     3.349000000    -3.057000000
H     6.354000000     2.891000000    -3.991000000
C     5.797000000     4.737000000    -3.069000000
H     5.826000000     5.209000000    -4.047000000
C     5.515000000     5.400000000    -1.900000000
H     5.517000000     6.483000000    -1.811000000
C     5.282000000     4.624000000    -0.766000000
C     5.523000000     3.242000000    -0.721000000
H     5.421000000     2.613000000     0.160000000
C     0.639000000    -1.451000000     1.300000000
H     0.764000000    -2.332000000     1.924000000
C    -0.567000000    -1.058000000     0.814000000
H    -1.459000000    -1.499000000     1.251000000
C    -0.700000000    -0.006000000    -0.051000000
H    -1.668000000     0.262000000    -0.476000000
C     0.446000000     0.584000000    -0.590000000
H     0.335000000     1.310000000    -1.391000000
C     1.737000000     0.208000000    -0.149000000
H     2.689000000     0.470000000    -0.604000000
C     1.798000000    -0.803000000     0.796000000
C     3.198000000    -1.338000000     1.272000000
O     4.220000000    -0.702000000     1.044000000
O     3.303000000    -2.278000000     2.031000000
O     4.691000000     3.573000000     5.877000000
H     3.949000000     3.812000000     6.433000000
H     4.365000000     2.848000000     5.342000000
O     6.813000000    -1.476000000     1.032000000
H     7.174000000    -0.598000000     0.915000000
H     5.868000000    -1.339000000     1.105000000
O     7.409000000    -4.889000000    -1.581000000
H     7.179000000    -5.785000000    -1.829000000
H     6.630000000    -4.375000000    -1.791000000
O     3.471000000     1.440000000     4.477000000
H     2.732000000     1.722000000     3.937000000
H     4.206000000     1.382000000     3.866000000
O     5.848000000    -2.703000000     3.798000000
H     4.911000000    -2.615000000     3.622000000
H     6.270000000    -2.453000000     2.976000000
O     6.087000000    -4.554000000     1.163000000
H     6.907000000    -5.024000000     1.312000000
H     6.354000000    -3.722000000     0.773000000
O     6.985000000     3.436000000     2.999000000
H     6.355000000     2.803000000     2.655000000
H     7.698000000     3.435000000     2.362000000
O     3.077000000    -1.283000000     5.207000000
H     3.105000000    -0.330000000     5.125000000
H     2.848000000    -1.593000000     4.331000000
O     7.741000000    -4.477000000     5.417000000
H     7.515000000    -4.009000000     4.613000000
H     8.131000000    -5.298000000     5.115000000
O     2.727000000    -5.369000000     5.020000000
H     2.258000000    -4.559000000     5.224000000
H     3.010000000    -5.260000000     4.112000000
O     6.332000000    -1.343000000     6.416000000
H     6.380000000    -0.417000000     6.180000000
H     5.954000000    -1.768000000     5.646000000
O     5.358000000    -6.328000000     4.579000000
H     5.755000000    -5.495000000     4.834000000
H     4.415000000    -6.170000000     4.629000000
O     1.657000000    -3.425000000     6.988000000
H     2.399000000    -3.685000000     7.535000000
H     1.980000000    -2.676000000     6.486000000
O     5.270000000     1.166000000     2.505000000
H     6.115000000     0.718000000     2.528000000
H     4.695000000     0.566000000     2.030000000
O     3.498000000    -4.787000000     2.500000000
H     3.194000000    -3.899000000     2.312000000
H     4.288000000    -4.887000000     1.968000000
O     5.136000000    -7.783000000     0.382000000
H     5.009000000    -6.840000000     0.489000000
H     5.594000000    -7.869000000    -0.454000000
O     8.158000000     0.858000000     1.696000000
H     8.450000000     1.008000000     2.595000000
H     8.414000000     1.652000000     1.226000000
O     1.311000000     1.556000000     2.550000000
H     1.831000000     2.116000000     1.973000000
H     0.862000000     0.953000000     1.958000000
O     9.434000000    -2.807000000     1.818000000
H    10.007000000    -3.091000000     1.106000000
H     8.729000000    -2.329000000     1.383000000
