215
-1462.61647
C    -2.520000000    -0.729000000     5.064000000
H    -2.977000000    -1.563000000     4.538000000
C    -2.566000000     0.593000000     4.468000000
C    -1.816000000     1.667000000     5.071000000
H    -1.781000000     2.615000000     4.540000000
C    -3.125000000     0.808000000     3.038000000
O    -4.150000000    -0.217000000     2.905000000
H    -2.324000000     0.525000000     2.340000000
O    -3.600000000     2.185000000     2.805000000
C    -3.339000000     2.773000000     1.611000000
C    -2.287000000     3.655000000     1.483000000
H    -1.672000000     3.846000000     2.359000000
C    -1.941000000     4.133000000     0.249000000
O    -0.698000000     4.750000000     0.094000000
C    -2.783000000     3.946000000    -0.861000000
C    -2.482000000     4.501000000    -2.195000000
H    -3.410000000     4.723000000    -2.726000000
C    -1.545000000     3.554000000    -2.962000000
C    -2.058000000     2.581000000    -3.822000000
H    -3.132000000     2.415000000    -3.847000000
H    -2.012000000     5.485000000    -2.133000000
C    -3.883000000     3.089000000    -0.802000000
H    -4.643000000     2.961000000    -1.569000000
C    -4.120000000     2.485000000     0.472000000
C    -5.244000000     1.507000000     0.631000000
H    -5.903000000     1.664000000    -0.226000000
H    -5.917000000     1.586000000     1.487000000
C    -4.838000000     0.090000000     0.563000000
C    -4.733000000    -0.456000000    -0.720000000
H    -5.076000000     0.206000000    -1.511000000
C    -4.324000000    -0.716000000     1.600000000
C    -3.839000000    -1.970000000     1.385000000
H    -3.285000000    -2.572000000     2.100000000
C    -3.827000000    -2.542000000     0.117000000
O    -3.142000000    -3.789000000    -0.050000000
C    -1.820000000    -3.669000000    -0.643000000
C    -0.798000000    -4.556000000     0.093000000
C     0.311000000    -5.068000000    -0.526000000
H     0.597000000    -4.741000000    -1.522000000
C    -0.929000000    -4.777000000     1.462000000
H    -1.778000000    -4.435000000     2.048000000
O    -1.987000000    -3.904000000    -2.112000000
H    -1.453000000    -2.663000000    -0.394000000
C    -4.328000000    -1.770000000    -0.925000000
C    -4.345000000    -2.251000000    -2.370000000
H    -5.232000000    -1.828000000    -2.847000000
H    -4.452000000    -3.336000000    -2.310000000
C    -3.128000000    -1.976000000    -3.193000000
C    -3.067000000    -0.964000000    -4.089000000
H    -3.929000000    -0.304000000    -4.146000000
C    -2.017000000    -2.826000000    -2.973000000
C    -0.767000000    -2.419000000    -3.535000000
H     0.171000000    -2.918000000    -3.308000000
C    -0.741000000    -1.422000000    -4.454000000
O     0.490000000    -1.115000000    -5.090000000
C     1.354000000    -0.277000000    -4.333000000
C     2.832000000    -0.625000000    -4.129000000
C     3.163000000    -1.995000000    -4.125000000
H     2.397000000    -2.708000000    -4.418000000
C     3.771000000     0.246000000    -3.675000000
H     3.487000000     1.244000000    -3.350000000
O     1.197000000     1.069000000    -4.876000000
H     0.985000000    -0.217000000    -3.298000000
C    -1.840000000    -0.680000000    -4.720000000
C    -1.716000000     0.673000000    -5.423000000
H    -2.741000000     0.931000000    -5.698000000
H    -1.092000000     0.642000000    -6.319000000
C    -1.138000000     1.690000000    -4.488000000
C     0.253000000     1.847000000    -4.254000000
C     0.694000000     2.763000000    -3.421000000
H     1.755000000     2.976000000    -3.324000000
C    -0.166000000     3.629000000    -2.770000000
O     0.412000000     4.509000000    -1.925000000
C     0.346000000     4.057000000    -0.535000000
H     0.171000000     2.971000000    -0.528000000
C     1.623000000     4.278000000     0.263000000
C     1.641000000     4.199000000     1.658000000
H     0.719000000     3.972000000     2.187000000
C     2.809000000     4.544000000    -0.474000000
H     2.806000000     4.712000000    -1.548000000
C     3.982000000     4.725000000     0.288000000
O     5.192000000     4.723000000    -0.365000000
C     4.048000000     4.634000000     1.649000000
H     4.883000000     5.025000000     2.225000000
C     2.866000000     4.431000000     2.306000000
O     2.894000000     4.313000000     3.684000000
C     1.783000000     4.411000000     4.588000000
C     1.293000000     3.314000000     5.245000000
H     1.773000000     2.347000000     5.127000000
C     1.169000000     5.616000000     4.748000000
H     1.647000000     6.370000000     4.127000000
C     0.067000000     5.813000000     5.603000000
H    -0.486000000     6.748000000     5.635000000
C    -0.390000000     4.734000000     6.223000000
H    -1.247000000     4.850000000     6.882000000
C     0.226000000     3.477000000     6.068000000
O    -0.322000000     2.399000000     6.783000000
C    -0.961000000     1.378000000     6.124000000
C    -0.903000000     0.130000000     6.670000000
H    -0.235000000    -0.019000000     7.515000000
C    -1.619000000    -0.956000000     6.081000000
O    -1.375000000    -2.246000000     6.558000000
C    -1.736000000    -3.359000000     5.909000000
C    -0.823000000    -3.923000000     5.024000000
H     0.091000000    -3.373000000     4.814000000
C    -2.863000000    -4.090000000     6.270000000
H    -3.611000000    -3.714000000     6.964000000
C    -3.181000000    -5.271000000     5.568000000
H    -4.151000000    -5.733000000     5.735000000
C    -2.320000000    -5.837000000     4.645000000
H    -2.563000000    -6.833000000     4.284000000
C    -1.148000000    -5.142000000     4.385000000
O    -0.166000000    -5.645000000     3.567000000
C     0.038000000    -5.494000000     2.200000000
C     1.196000000    -5.918000000     1.574000000
H     2.014000000    -6.271000000     2.196000000
C     1.329000000    -5.605000000     0.238000000
O     2.648000000    -5.807000000    -0.150000000
C     3.035000000    -5.788000000    -1.455000000
C     3.773000000    -4.712000000    -2.014000000
H     4.053000000    -3.888000000    -1.362000000
C     2.678000000    -6.939000000    -2.214000000
H     2.098000000    -7.738000000    -1.759000000
C     2.982000000    -6.930000000    -3.599000000
H     2.671000000    -7.822000000    -4.136000000
C     3.679000000    -5.854000000    -4.149000000
H     3.871000000    -5.923000000    -5.216000000
C     4.062000000    -4.791000000    -3.355000000
O     4.765000000    -3.770000000    -3.974000000
C     4.411000000    -2.469000000    -3.738000000
C     5.349000000    -1.532000000    -3.298000000
H     6.254000000    -1.977000000    -2.891000000
C     5.016000000    -0.193000000    -3.177000000
O     5.945000000     0.635000000    -2.563000000
C     5.915000000     1.989000000    -2.623000000
C     6.070000000     2.572000000    -3.812000000
H     6.367000000     1.922000000    -4.632000000
C     5.795000000     3.964000000    -3.965000000
H     5.829000000     4.472000000    -4.925000000
C     5.492000000     4.690000000    -2.765000000
H     5.317000000     5.762000000    -2.816000000
C     5.322000000     4.015000000    -1.552000000
C     5.407000000     2.638000000    -1.514000000
H     5.231000000     2.132000000    -0.568000000
C     0.698000000    -1.907000000     2.092000000
H     0.800000000    -2.441000000     3.033000000
C    -0.495000000    -1.268000000     1.850000000
H    -1.353000000    -1.494000000     2.478000000
C    -0.701000000    -0.597000000     0.672000000
H    -1.716000000    -0.148000000     0.490000000
C     0.336000000    -0.500000000    -0.264000000
H     0.128000000     0.020000000    -1.196000000
C     1.577000000    -1.047000000     0.006000000
H     2.450000000    -0.912000000    -0.628000000
C     1.729000000    -1.802000000     1.208000000
C     3.037000000    -2.524000000     1.405000000
O     3.833000000    -2.482000000     0.465000000
O     3.390000000    -2.970000000     2.505000000
O     2.620000000    -0.821000000     5.099000000
H     2.102000000    -0.369000000     4.433000000
H     3.380000000    -0.255000000     5.237000000
O     4.802000000     0.764000000     5.438000000
H     4.735000000     0.977000000     4.507000000
H     5.731000000     0.579000000     5.575000000
O     6.238000000    -3.094000000     0.194000000
H     6.494000000    -2.368000000     0.762000000
H     5.286000000    -3.022000000     0.126000000
O     7.370000000     1.961000000     2.222000000
H     8.024000000     1.524000000     1.676000000
H     7.675000000     2.866000000     2.282000000
O     8.354000000    -1.942000000     5.346000000
H     7.783000000    -2.433000000     4.755000000
H     7.877000000    -1.131000000     5.522000000
O     5.592000000    -2.612000000     3.919000000
H     4.824000000    -2.545000000     3.352000000
H     5.543000000    -3.494000000     4.287000000
O     7.387000000    -6.228000000     0.683000000
H     7.430000000    -5.872000000    -0.205000000
H     6.726000000    -5.694000000     1.123000000
O     4.848000000     0.777000000     2.477000000
H     4.861000000     0.218000000     1.700000000
H     5.589000000     1.371000000     2.357000000
O     3.225000000    -3.580000000     5.250000000
H     3.235000000    -2.650000000     5.476000000
H     3.228000000    -3.594000000     4.293000000
O     3.485000000    -5.499000000     7.431000000
H     3.125000000    -6.039000000     6.728000000
H     3.903000000    -4.766000000     6.980000000
O     5.034000000    -0.300000000     0.090000000
H     5.081000000    -0.168000000    -0.857000000
H     4.595000000    -1.144000000     0.193000000
O     4.828000000    -5.331000000     2.602000000
H     4.671000000    -4.421000000     2.350000000
H     4.309000000    -5.844000000     1.983000000
O     1.500000000    -2.698000000     8.025000000
H     1.790000000    -2.863000000     7.128000000
H     0.931000000    -3.439000000     8.233000000
O     2.509000000    -6.629000000     5.154000000
H     3.125000000    -6.158000000     4.593000000
H     1.657000000    -6.240000000     4.956000000
O     7.416000000    -0.998000000     2.715000000
H     6.728000000    -1.358000000     3.273000000
H     7.064000000    -0.162000000     2.410000000
O     7.107000000    -6.588000000     3.610000000
H     7.301000000    -7.448000000     3.236000000
H     6.156000000    -6.505000000     3.537000000
O     1.074000000     1.211000000     2.825000000
H     2.011000000     1.293000000     2.648000000
H     0.776000000     0.525000000     2.226000000
O     8.636000000    -3.211000000     2.468000000
H     8.265000000    -2.378000000     2.758000000
H     8.861000000    -3.669000000     3.278000000
O     7.945000000    -4.426000000    -1.347000000
H     8.690000000    -3.933000000    -1.003000000
H     7.177000000    -3.975000000    -0.995000000
