215
-1448.30979
C    -2.190000000    -1.053000000     4.573000000
H    -2.794000000    -1.842000000     4.132000000
C    -2.147000000     0.198000000     3.981000000
C    -1.369000000     1.219000000     4.515000000
H    -1.171000000     2.217000000     4.134000000
C    -2.973000000     0.426000000     2.708000000
O    -4.140000000    -0.381000000     2.628000000
H    -2.299000000     0.282000000     1.851000000
O    -3.428000000     1.870000000     2.705000000
C    -3.434000000     2.559000000     1.525000000
C    -2.643000000     3.638000000     1.604000000
H    -2.065000000     3.795000000     2.511000000
C    -2.304000000     4.245000000     0.372000000
O    -1.080000000     4.958000000     0.299000000
C    -2.973000000     3.903000000    -0.863000000
C    -2.691000000     4.464000000    -2.250000000
H    -3.559000000     4.557000000    -2.906000000
C    -1.602000000     3.642000000    -2.942000000
C    -2.064000000     2.717000000    -3.889000000
H    -3.117000000     2.680000000    -4.156000000
H    -2.501000000     5.537000000    -2.184000000
C    -4.002000000     2.936000000    -0.838000000
H    -4.535000000     2.695000000    -1.754000000
C    -4.245000000     2.221000000     0.351000000
C    -5.317000000     1.219000000     0.437000000
H    -6.026000000     1.492000000    -0.348000000
H    -5.813000000     1.269000000     1.408000000
C    -4.819000000    -0.216000000     0.287000000
C    -4.779000000    -0.769000000    -0.966000000
H    -4.890000000    -0.125000000    -1.835000000
C    -4.302000000    -0.951000000     1.361000000
C    -3.647000000    -2.188000000     1.094000000
H    -3.252000000    -2.792000000     1.906000000
C    -3.770000000    -2.766000000    -0.125000000
O    -3.138000000    -3.955000000    -0.237000000
C    -1.770000000    -3.914000000    -0.609000000
C    -0.807000000    -4.868000000     0.168000000
C     0.386000000    -5.228000000    -0.385000000
H     0.514000000    -5.076000000    -1.454000000
C    -1.074000000    -5.097000000     1.543000000
H    -2.020000000    -4.754000000     1.956000000
O    -1.554000000    -4.030000000    -1.988000000
H    -1.418000000    -2.943000000    -0.231000000
C    -4.383000000    -2.086000000    -1.183000000
C    -4.131000000    -2.680000000    -2.509000000
H    -4.913000000    -2.312000000    -3.177000000
H    -4.233000000    -3.765000000    -2.574000000
C    -2.811000000    -2.218000000    -3.098000000
C    -2.752000000    -1.049000000    -3.889000000
H    -3.585000000    -0.385000000    -4.108000000
C    -1.616000000    -2.822000000    -2.651000000
C    -0.463000000    -2.481000000    -3.322000000
H     0.415000000    -3.045000000    -3.018000000
C    -0.417000000    -1.412000000    -4.207000000
O     0.764000000    -1.097000000    -4.761000000
C     1.425000000    -0.044000000    -3.993000000
C     2.850000000    -0.346000000    -3.711000000
C     3.250000000    -1.677000000    -3.684000000
H     2.547000000    -2.406000000    -4.078000000
C     3.720000000     0.664000000    -3.315000000
H     3.340000000     1.677000000    -3.209000000
O     1.324000000     1.259000000    -4.601000000
H     0.941000000    -0.008000000    -3.006000000
C    -1.528000000    -0.639000000    -4.486000000
C    -1.434000000     0.715000000    -5.255000000
H    -2.410000000     0.929000000    -5.695000000
H    -0.801000000     0.677000000    -6.144000000
C    -1.057000000     1.904000000    -4.416000000
C     0.325000000     2.037000000    -4.132000000
C     0.740000000     3.115000000    -3.344000000
H     1.759000000     3.357000000    -3.053000000
C    -0.279000000     3.816000000    -2.714000000
O     0.104000000     4.820000000    -1.798000000
C     0.056000000     4.444000000    -0.468000000
H     0.015000000     3.346000000    -0.522000000
C     1.394000000     4.768000000     0.233000000
C     1.439000000     4.523000000     1.618000000
H     0.584000000     4.183000000     2.197000000
C     2.537000000     5.162000000    -0.454000000
H     2.557000000     5.323000000    -1.529000000
C     3.747000000     5.363000000     0.271000000
O     4.925000000     5.611000000    -0.490000000
C     3.818000000     5.004000000     1.627000000
H     4.730000000     5.155000000     2.197000000
C     2.625000000     4.707000000     2.313000000
O     2.657000000     4.594000000     3.669000000
C     1.554000000     4.530000000     4.504000000
C     1.362000000     3.263000000     5.181000000
H     2.097000000     2.469000000     5.080000000
C     0.600000000     5.569000000     4.729000000
H     0.792000000     6.492000000     4.188000000
C    -0.516000000     5.401000000     5.508000000
H    -1.174000000     6.215000000     5.800000000
C    -0.742000000     4.156000000     6.152000000
H    -1.609000000     4.087000000     6.802000000
C     0.179000000     3.127000000     5.954000000
O    -0.087000000     1.952000000     6.448000000
C    -0.700000000     0.932000000     5.729000000
C    -0.791000000    -0.326000000     6.353000000
H    -0.281000000    -0.518000000     7.293000000
C    -1.542000000    -1.326000000     5.775000000
O    -1.529000000    -2.552000000     6.450000000
C    -1.928000000    -3.684000000     5.738000000
C    -1.000000000    -4.257000000     4.934000000
H     0.022000000    -3.900000000     4.829000000
C    -3.116000000    -4.317000000     6.031000000
H    -3.817000000    -3.811000000     6.689000000
C    -3.448000000    -5.557000000     5.411000000
H    -4.423000000    -6.027000000     5.512000000
C    -2.493000000    -6.023000000     4.498000000
H    -2.785000000    -6.884000000     3.902000000
C    -1.277000000    -5.483000000     4.344000000
O    -0.313000000    -6.084000000     3.584000000
C    -0.107000000    -5.779000000     2.275000000
C     1.124000000    -6.093000000     1.776000000
H     1.882000000    -6.706000000     2.258000000
C     1.373000000    -5.855000000     0.408000000
O     2.565000000    -6.282000000    -0.168000000
C     3.016000000    -5.951000000    -1.431000000
C     3.738000000    -4.806000000    -1.664000000
H     3.843000000    -4.030000000    -0.911000000
C     2.980000000    -7.003000000    -2.325000000
H     2.517000000    -7.945000000    -2.043000000
C     3.616000000    -6.749000000    -3.529000000
H     3.611000000    -7.477000000    -4.336000000
C     4.194000000    -5.510000000    -3.915000000
H     4.545000000    -5.240000000    -4.908000000
C     4.238000000    -4.524000000    -2.925000000
O     4.958000000    -3.370000000    -3.201000000
C     4.482000000    -2.075000000    -3.193000000
C     5.309000000    -1.068000000    -2.776000000
H     6.274000000    -1.350000000    -2.363000000
C     4.996000000     0.273000000    -2.856000000
O     5.829000000     1.204000000    -2.343000000
C     5.638000000     2.548000000    -2.530000000
C     6.102000000     3.105000000    -3.723000000
H     6.524000000     2.429000000    -4.462000000
C     5.927000000     4.548000000    -3.926000000
H     6.067000000     4.998000000    -4.905000000
C     5.651000000     5.365000000    -2.829000000
H     5.574000000     6.448000000    -2.896000000
C     5.315000000     4.782000000    -1.599000000
C     5.272000000     3.379000000    -1.487000000
H     4.961000000     2.880000000    -0.572000000
C     1.495000000    -2.013000000     1.726000000
H     1.568000000    -2.831000000     2.439000000
C     0.318000000    -1.291000000     1.407000000
H    -0.611000000    -1.584000000     1.890000000
C     0.226000000    -0.276000000     0.492000000
H    -0.666000000     0.290000000     0.236000000
C     1.385000000     0.158000000    -0.173000000
H     1.359000000     0.955000000    -0.911000000
C     2.573000000    -0.511000000     0.067000000
H     3.435000000    -0.128000000    -0.472000000
C     2.645000000    -1.649000000     0.954000000
C     3.925000000    -2.481000000     1.199000000
O     4.961000000    -2.330000000     0.607000000
O     3.963000000    -3.273000000     2.149000000
O     2.956000000    -0.970000000     4.755000000
H     2.631000000    -0.123000000     4.448000000
H     3.782000000    -0.765000000     5.193000000
O     5.127000000     0.521000000     5.088000000
H     4.838000000     0.772000000     4.210000000
H     5.896000000     1.066000000     5.252000000
O     7.091000000    -4.154000000     0.023000000
H     7.555000000    -4.098000000     0.858000000
H     6.319000000    -3.600000000     0.139000000
O     7.910000000    -0.516000000     4.656000000
H     7.710000000    -0.199000000     5.536000000
H     7.263000000    -1.204000000     4.497000000
O     5.926000000    -2.229000000     3.751000000
H     5.600000000    -2.813000000     3.066000000
H     5.153000000    -1.740000000     4.036000000
O     7.883000000    -6.156000000     1.833000000
H     7.026000000    -5.805000000     2.076000000
H     8.497000000    -5.719000000     2.422000000
O     5.003000000     1.145000000     2.250000000
H     5.561000000     0.416000000     1.979000000
H     5.497000000     1.928000000     2.006000000
O     3.160000000    -3.551000000     4.550000000
H     2.615000000    -2.777000000     4.697000000
H     3.504000000    -3.435000000     3.664000000
O     3.977000000    -4.973000000     6.523000000
H     3.197000000    -5.519000000     6.622000000
H     3.827000000    -4.486000000     5.712000000
O     4.051000000    -7.737000000     1.980000000
H     3.717000000    -7.043000000     1.411000000
H     3.640000000    -8.536000000     1.649000000
O     6.863000000    -0.402000000     0.811000000
H     6.484000000    -0.036000000     0.012000000
H     6.363000000    -1.203000000     0.969000000
O     5.308000000    -5.319000000     2.709000000
H     4.899000000    -4.486000000     2.474000000
H     4.572000000    -5.907000000     2.879000000
O     8.723000000     0.594000000     2.238000000
H     8.566000000     0.187000000     3.090000000
H     8.020000000     0.260000000     1.680000000
O     5.939000000    -9.071000000    -1.418000000
H     6.884000000    -9.213000000    -1.467000000
H     5.845000000    -8.128000000    -1.287000000
O     8.672000000    -4.636000000    -2.620000000
H     8.804000000    -3.896000000    -3.211000000
H     8.271000000    -4.252000000    -1.840000000
O     6.126000000    -8.076000000     4.864000000
H     6.221000000    -8.792000000     4.235000000
H     6.492000000    -7.313000000     4.416000000
O     2.196000000     1.053000000     2.718000000
H     3.073000000     0.694000000     2.580000000
H     1.649000000     0.598000000     2.078000000
O     8.489000000    -3.366000000     2.812000000
H     7.655000000    -3.427000000     3.279000000
H     8.590000000    -2.434000000     2.622000000
O     6.429000000    -6.344000000    -1.692000000
H     5.840000000    -5.735000000    -2.138000000
H     6.748000000    -5.857000000    -0.933000000
