215
-1459.31419
C    -1.730000000    -0.216000000     4.812000000
H    -2.341000000    -1.049000000     4.475000000
C    -1.690000000     0.965000000     4.098000000
C    -0.806000000     1.948000000     4.530000000
H    -0.779000000     2.860000000     3.938000000
C    -2.616000000     1.114000000     2.941000000
O    -3.786000000     0.198000000     2.927000000
H    -2.050000000     0.763000000     2.065000000
O    -3.101000000     2.410000000     2.766000000
C    -3.070000000     2.991000000     1.518000000
C    -2.110000000     3.935000000     1.231000000
H    -1.371000000     4.243000000     1.966000000
C    -2.003000000     4.358000000    -0.096000000
O    -0.815000000     5.061000000    -0.375000000
C    -2.807000000     3.840000000    -1.100000000
C    -2.587000000     4.230000000    -2.552000000
H    -3.507000000     4.382000000    -3.120000000
C    -1.604000000     3.296000000    -3.273000000
C    -2.102000000     2.226000000    -4.015000000
H    -3.176000000     2.075000000    -4.084000000
H    -2.144000000     5.228000000    -2.570000000
C    -3.815000000     2.913000000    -0.725000000
H    -4.513000000     2.547000000    -1.474000000
C    -3.980000000     2.481000000     0.554000000
C    -5.125000000     1.532000000     0.784000000
H    -5.858000000     1.701000000    -0.007000000
H    -5.666000000     1.598000000     1.730000000
C    -4.609000000     0.106000000     0.733000000
C    -4.804000000    -0.671000000    -0.437000000
H    -5.308000000    -0.193000000    -1.274000000
C    -4.034000000    -0.499000000     1.805000000
C    -3.649000000    -1.847000000     1.698000000
H    -3.184000000    -2.370000000     2.530000000
C    -3.821000000    -2.586000000     0.545000000
O    -3.201000000    -3.828000000     0.500000000
C    -1.953000000    -3.769000000    -0.115000000
C    -0.919000000    -4.614000000     0.649000000
C     0.130000000    -5.189000000    -0.058000000
H     0.169000000    -5.194000000    -1.144000000
C    -0.843000000    -4.551000000     2.033000000
H    -1.634000000    -4.031000000     2.566000000
O    -2.090000000    -4.124000000    -1.555000000
H    -1.534000000    -2.757000000    -0.022000000
C    -4.342000000    -1.967000000    -0.557000000
C    -4.442000000    -2.637000000    -1.887000000
H    -5.358000000    -2.158000000    -2.242000000
H    -4.576000000    -3.717000000    -1.792000000
C    -3.287000000    -2.373000000    -2.805000000
C    -3.171000000    -1.251000000    -3.643000000
H    -4.048000000    -0.611000000    -3.707000000
C    -2.189000000    -3.181000000    -2.567000000
C    -1.034000000    -3.062000000    -3.320000000
H    -0.214000000    -3.745000000    -3.114000000
C    -0.995000000    -2.078000000    -4.252000000
O     0.254000000    -1.809000000    -4.775000000
C     1.051000000    -0.768000000    -4.122000000
C     2.465000000    -1.187000000    -3.855000000
C     2.833000000    -2.548000000    -3.800000000
H     2.072000000    -3.263000000    -4.102000000
C     3.380000000    -0.213000000    -3.469000000
H     3.081000000     0.819000000    -3.304000000
O     0.941000000     0.437000000    -4.865000000
H     0.612000000    -0.603000000    -3.127000000
C    -2.002000000    -1.085000000    -4.313000000
C    -1.814000000     0.077000000    -5.268000000
H    -2.828000000     0.369000000    -5.551000000
H    -1.203000000    -0.191000000    -6.132000000
C    -1.222000000     1.275000000    -4.568000000
C     0.152000000     1.407000000    -4.398000000
C     0.669000000     2.485000000    -3.613000000
H     1.737000000     2.658000000    -3.511000000
C    -0.226000000     3.426000000    -3.156000000
O     0.231000000     4.449000000    -2.328000000
C     0.221000000     4.262000000    -0.857000000
H     0.030000000     3.225000000    -0.544000000
C     1.583000000     4.650000000    -0.206000000
C     1.632000000     4.990000000     1.181000000
H     0.707000000     5.176000000     1.721000000
C     2.792000000     4.508000000    -0.881000000
H     2.823000000     4.325000000    -1.953000000
C     3.975000000     4.938000000    -0.353000000
O     5.193000000     4.819000000    -1.068000000
C     4.020000000     5.398000000     0.976000000
H     4.962000000     5.730000000     1.405000000
C     2.834000000     5.358000000     1.750000000
O     2.863000000     5.795000000     3.069000000
C     1.850000000     5.586000000     4.023000000
C     1.756000000     4.407000000     4.737000000
H     2.459000000     3.606000000     4.524000000
C     0.861000000     6.574000000     4.127000000
H     0.984000000     7.529000000     3.624000000
C    -0.130000000     6.385000000     5.101000000
H    -0.923000000     7.119000000     5.228000000
C    -0.244000000     5.174000000     5.779000000
H    -1.127000000     4.942000000     6.370000000
C     0.663000000     4.162000000     5.642000000
O     0.475000000     2.920000000     6.288000000
C    -0.116000000     1.857000000     5.744000000
C    -0.217000000     0.661000000     6.464000000
H     0.306000000     0.615000000     7.416000000
C    -0.971000000    -0.423000000     5.966000000
O    -1.013000000    -1.556000000     6.703000000
C    -1.392000000    -2.710000000     6.139000000
C    -0.465000000    -3.359000000     5.424000000
H     0.442000000    -2.814000000     5.177000000
C    -2.580000000    -3.336000000     6.490000000
H    -3.247000000    -2.715000000     7.084000000
C    -2.948000000    -4.556000000     5.944000000
H    -3.904000000    -5.041000000     6.128000000
C    -1.981000000    -5.233000000     5.182000000
H    -2.258000000    -6.171000000     4.707000000
C    -0.823000000    -4.609000000     4.887000000
O     0.177000000    -5.220000000     4.167000000
C     0.142000000    -5.219000000     2.798000000
C     1.153000000    -5.908000000     2.060000000
H     1.807000000    -6.450000000     2.738000000
C     1.131000000    -5.882000000     0.605000000
O     2.051000000    -6.695000000    -0.054000000
C     2.415000000    -6.417000000    -1.335000000
C     3.214000000    -5.292000000    -1.680000000
H     3.537000000    -4.504000000    -1.005000000
C     2.280000000    -7.519000000    -2.200000000
H     1.802000000    -8.372000000    -1.724000000
C     2.974000000    -7.508000000    -3.407000000
H     2.693000000    -8.292000000    -4.107000000
C     3.705000000    -6.358000000    -3.820000000
H     4.148000000    -6.241000000    -4.806000000
C     3.794000000    -5.265000000    -2.985000000
O     4.530000000    -4.184000000    -3.421000000
C     4.072000000    -2.934000000    -3.361000000
C     4.988000000    -1.954000000    -2.983000000
H     5.944000000    -2.336000000    -2.635000000
C     4.649000000    -0.594000000    -2.946000000
O     5.518000000     0.324000000    -2.378000000
C     5.526000000     1.601000000    -2.825000000
C     5.488000000     1.927000000    -4.187000000
H     5.549000000     1.155000000    -4.950000000
C     5.375000000     3.296000000    -4.468000000
H     5.363000000     3.645000000    -5.498000000
C     5.234000000     4.303000000    -3.476000000
H     5.184000000     5.362000000    -3.713000000
C     5.311000000     3.931000000    -2.165000000
C     5.474000000     2.569000000    -1.820000000
H     5.524000000     2.363000000    -0.754000000
C     0.527000000    -1.105000000     1.319000000
H     0.096000000    -1.622000000     2.172000000
C    -0.400000000    -0.502000000     0.436000000
H    -1.460000000    -0.737000000     0.493000000
C    -0.008000000     0.377000000    -0.540000000
H    -0.798000000     0.760000000    -1.152000000
C     1.317000000     0.755000000    -0.724000000
H     1.698000000     1.435000000    -1.481000000
C     2.201000000     0.140000000     0.147000000
H     3.261000000     0.357000000     0.049000000
C     1.871000000    -0.691000000     1.245000000
C     2.932000000    -1.220000000     2.184000000
O     4.058000000    -1.504000000     1.856000000
O     2.566000000    -1.415000000     3.318000000
O     8.420000000    -5.803000000     0.988000000
H     8.666000000    -6.712000000     0.817000000
H     7.673000000    -5.864000000     1.583000000
O     2.577000000    -1.248000000     6.216000000
H     2.955000000    -1.205000000     5.338000000
H     2.370000000    -2.174000000     6.343000000
O     4.996000000    -5.767000000     7.151000000
H     4.925000000    -5.272000000     6.334000000
H     4.192000000    -6.285000000     7.188000000
O     7.751000000     2.361000000     3.498000000
H     6.938000000     2.024000000     3.121000000
H     8.355000000     2.411000000     2.758000000
O     5.584000000     0.505000000     2.059000000
H     5.068000000    -0.297000000     2.142000000
H     6.264000000     0.288000000     1.423000000
O     5.990000000    -3.834000000     5.216000000
H     5.475000000    -3.695000000     4.421000000
H     6.757000000    -3.271000000     5.106000000
O     4.743000000    -4.101000000     2.557000000
H     4.564000000    -3.167000000     2.446000000
H     5.027000000    -4.395000000     1.692000000
O     6.922000000    -6.660000000     3.364000000
H     6.380000000    -5.908000000     3.599000000
H     7.821000000    -6.345000000     3.457000000
O     5.822000000    -2.248000000     0.131000000
H     5.609000000    -3.085000000    -0.282000000
H     5.214000000    -2.182000000     0.867000000
O     2.980000000    -3.957000000     4.548000000
H     2.775000000    -3.090000000     4.198000000
H     3.568000000    -4.344000000     3.900000000
O     2.332000000    -5.763000000     6.345000000
H     2.319000000    -5.169000000     5.595000000
H     1.936000000    -6.571000000     6.018000000
O     8.068000000    -1.829000000     5.130000000
H     7.362000000    -1.183000000     5.140000000
H     8.568000000    -1.626000000     4.339000000
O     5.696000000    -1.316000000     7.607000000
H     5.178000000    -2.080000000     7.859000000
H     6.571000000    -1.665000000     7.437000000
O     9.479000000    -1.118000000     2.842000000
H     8.966000000    -1.017000000     2.041000000
H     9.993000000    -1.913000000     2.699000000
O     8.042000000    -0.508000000     0.701000000
H     8.440000000    -0.082000000    -0.059000000
H     7.233000000    -0.893000000     0.364000000
O     1.539000000    -4.253000000     8.517000000
H     1.636000000    -4.653000000     7.652000000
H     2.421000000    -4.268000000     8.888000000
O     3.553000000     1.182000000     4.023000000
H     4.051000000     0.896000000     3.258000000
H     3.030000000     0.418000000     4.268000000
O     3.768000000     0.643000000     7.751000000
H     4.598000000     0.169000000     7.798000000
H     3.166000000     0.031000000     7.327000000
O     5.747000000    -5.162000000     0.203000000
H     6.701000000    -5.219000000     0.255000000
H     5.469000000    -6.035000000    -0.073000000
