215
-1444.79789
C    -1.136000000    -0.053000000     4.572000000
H    -1.402000000    -1.034000000     4.186000000
C    -1.686000000     1.137000000     4.110000000
C    -1.154000000     2.374000000     4.489000000
H    -1.563000000     3.354000000     4.257000000
C    -2.745000000     1.080000000     2.972000000
O    -3.722000000     0.020000000     3.131000000
H    -2.184000000     0.942000000     2.036000000
O    -3.395000000     2.351000000     2.826000000
C    -3.443000000     2.824000000     1.598000000
C    -2.468000000     3.799000000     1.130000000
H    -1.647000000     4.037000000     1.802000000
C    -2.315000000     4.147000000    -0.199000000
O    -1.157000000     4.825000000    -0.458000000
C    -3.167000000     3.588000000    -1.161000000
C    -2.910000000     3.902000000    -2.695000000
H    -3.871000000     3.899000000    -3.213000000
C    -1.906000000     2.986000000    -3.256000000
C    -2.393000000     1.893000000    -3.983000000
H    -3.460000000     1.717000000    -4.093000000
H    -2.536000000     4.928000000    -2.729000000
C    -4.097000000     2.629000000    -0.712000000
H    -4.751000000     2.072000000    -1.378000000
C    -4.249000000     2.314000000     0.644000000
C    -5.295000000     1.323000000     1.047000000
H    -6.061000000     1.412000000     0.273000000
H    -5.596000000     1.477000000     2.085000000
C    -4.887000000    -0.168000000     0.949000000
C    -5.060000000    -0.861000000    -0.255000000
H    -5.573000000    -0.300000000    -1.031000000
C    -4.135000000    -0.711000000     1.996000000
C    -3.628000000    -2.053000000     1.930000000
H    -3.032000000    -2.481000000     2.732000000
C    -3.936000000    -2.801000000     0.794000000
O    -3.177000000    -3.893000000     0.605000000
C    -1.903000000    -3.879000000    -0.083000000
C    -0.813000000    -4.633000000     0.712000000
C     0.131000000    -5.297000000     0.024000000
H     0.172000000    -5.342000000    -1.061000000
C    -0.837000000    -4.594000000     2.097000000
H    -1.573000000    -4.071000000     2.702000000
O    -2.105000000    -4.331000000    -1.398000000
H    -1.661000000    -2.809000000    -0.163000000
C    -4.633000000    -2.177000000    -0.286000000
C    -4.600000000    -2.911000000    -1.663000000
H    -5.544000000    -2.722000000    -2.178000000
H    -4.702000000    -3.994000000    -1.563000000
C    -3.374000000    -2.630000000    -2.519000000
C    -3.287000000    -1.661000000    -3.409000000
H    -4.268000000    -1.197000000    -3.478000000
C    -2.200000000    -3.398000000    -2.375000000
C    -1.044000000    -3.167000000    -3.098000000
H    -0.132000000    -3.723000000    -2.898000000
C    -1.020000000    -2.147000000    -3.983000000
O     0.172000000    -1.968000000    -4.733000000
C     1.009000000    -0.958000000    -4.198000000
C     2.506000000    -1.284000000    -4.012000000
C     2.944000000    -2.614000000    -4.078000000
H     2.317000000    -3.388000000    -4.512000000
C     3.358000000    -0.284000000    -3.467000000
H     3.124000000     0.777000000    -3.422000000
O     0.788000000     0.293000000    -4.840000000
H     0.658000000    -0.816000000    -3.165000000
C    -2.165000000    -1.391000000    -4.201000000
C    -2.138000000    -0.213000000    -5.208000000
H    -3.162000000    -0.010000000    -5.528000000
H    -1.569000000    -0.462000000    -6.106000000
C    -1.520000000     0.991000000    -4.568000000
C    -0.170000000     1.183000000    -4.425000000
C     0.355000000     2.296000000    -3.704000000
H     1.419000000     2.404000000    -3.508000000
C    -0.527000000     3.144000000    -3.102000000
O     0.160000000     4.153000000    -2.367000000
C     0.062000000     4.100000000    -0.887000000
H     0.122000000     3.069000000    -0.507000000
C     1.343000000     4.699000000    -0.307000000
C     1.503000000     4.983000000     1.022000000
H     0.595000000     4.900000000     1.615000000
C     2.562000000     4.672000000    -1.055000000
H     2.486000000     4.255000000    -2.056000000
C     3.797000000     5.042000000    -0.476000000
O     5.004000000     4.895000000    -1.249000000
C     3.801000000     5.394000000     0.841000000
H     4.715000000     5.699000000     1.344000000
C     2.699000000     5.403000000     1.625000000
O     2.766000000     6.005000000     2.806000000
C     1.693000000     6.083000000     3.645000000
C     1.551000000     4.878000000     4.378000000
H     2.349000000     4.149000000     4.266000000
C     0.771000000     7.102000000     3.715000000
H     0.898000000     7.956000000     3.054000000
C    -0.382000000     6.916000000     4.520000000
H    -1.205000000     7.627000000     4.522000000
C    -0.451000000     5.762000000     5.343000000
H    -1.277000000     5.640000000     6.040000000
C     0.440000000     4.685000000     5.165000000
O     0.325000000     3.552000000     5.951000000
C    -0.158000000     2.392000000     5.496000000
C     0.274000000     1.204000000     6.046000000
H     0.999000000     1.265000000     6.854000000
C    -0.280000000    -0.024000000     5.686000000
O     0.261000000    -1.157000000     6.197000000
C    -0.357000000    -2.365000000     6.111000000
C     0.264000000    -3.339000000     5.343000000
H     1.217000000    -3.180000000     4.845000000
C    -1.684000000    -2.544000000     6.509000000
H    -2.085000000    -1.779000000     7.170000000
C    -2.425000000    -3.662000000     6.114000000
H    -3.440000000    -3.789000000     6.481000000
C    -1.876000000    -4.589000000     5.277000000
H    -2.376000000    -5.491000000     4.933000000
C    -0.547000000    -4.421000000     4.904000000
O    -0.017000000    -5.428000000     4.143000000
C     0.135000000    -5.276000000     2.824000000
C     1.095000000    -6.022000000     2.151000000
H     1.794000000    -6.605000000     2.745000000
C     1.129000000    -6.029000000     0.757000000
O     2.196000000    -6.676000000     0.108000000
C     2.451000000    -6.394000000    -1.247000000
C     3.264000000    -5.344000000    -1.610000000
H     3.504000000    -4.591000000    -0.865000000
C     2.179000000    -7.409000000    -2.217000000
H     1.572000000    -8.261000000    -1.923000000
C     2.631000000    -7.291000000    -3.507000000
H     2.449000000    -8.061000000    -4.252000000
C     3.440000000    -6.201000000    -3.875000000
H     3.734000000    -6.075000000    -4.914000000
C     3.767000000    -5.265000000    -2.942000000
O     4.673000000    -4.244000000    -3.410000000
C     4.217000000    -2.929000000    -3.595000000
C     4.931000000    -1.963000000    -2.953000000
H     5.917000000    -2.186000000    -2.555000000
C     4.538000000    -0.704000000    -2.857000000
O     5.389000000     0.195000000    -2.232000000
C     5.586000000     1.509000000    -2.619000000
C     6.433000000     1.852000000    -3.658000000
H     6.870000000     1.027000000    -4.215000000
C     6.711000000     3.207000000    -3.962000000
H     7.228000000     3.465000000    -4.883000000
C     6.127000000     4.155000000    -3.153000000
H     6.221000000     5.218000000    -3.360000000
C     5.506000000     3.818000000    -1.973000000
C     5.224000000     2.480000000    -1.704000000
H     4.735000000     2.132000000    -0.798000000
C     0.679000000    -1.066000000     1.459000000
H     0.339000000    -1.681000000     2.288000000
C    -0.273000000    -0.489000000     0.609000000
H    -1.349000000    -0.632000000     0.670000000
C     0.050000000     0.392000000    -0.411000000
H    -0.672000000     0.781000000    -1.035000000
C     1.407000000     0.615000000    -0.624000000
H     1.737000000     1.208000000    -1.474000000
C     2.382000000    -0.032000000     0.023000000
H     3.379000000     0.157000000    -0.367000000
C     2.072000000    -0.843000000     1.154000000
C     3.017000000    -1.549000000     2.031000000
O     4.160000000    -1.640000000     1.589000000
O     2.691000000    -1.921000000     3.154000000
O     2.414000000     0.891000000     4.069000000
H     2.517000000    -0.059000000     4.127000000
H     1.482000000     1.020000000     3.895000000
O     5.339000000    -4.645000000     6.173000000
H     5.126000000    -3.977000000     5.521000000
H     4.540000000    -5.168000000     6.249000000
O     6.578000000     4.233000000     2.447000000
H     6.024000000     3.458000000     2.363000000
H     7.422000000     3.965000000     2.083000000
O     6.238000000     1.243000000     1.686000000
H     6.055000000     0.329000000     1.468000000
H     7.082000000     1.424000000     1.271000000
O     5.720000000    -2.420000000     3.977000000
H     5.321000000    -2.130000000     3.156000000
H     6.632000000    -2.138000000     3.912000000
O     5.150000000    -4.409000000     1.374000000
H     4.917000000    -3.480000000     1.390000000
H     5.540000000    -4.543000000     0.510000000
O     6.203000000    -5.731000000     3.641000000
H     5.989000000    -5.585000000     2.720000000
H     6.122000000    -4.868000000     4.046000000
O     6.725000000    -1.452000000     0.664000000
H     6.890000000    -2.295000000     0.241000000
H     5.783000000    -1.448000000     0.832000000
O     3.429000000    -4.400000000     3.720000000
H     3.205000000    -3.480000000     3.575000000
H     3.582000000    -4.750000000     2.842000000
O     2.643000000    -5.846000000     5.830000000
H     2.750000000    -5.611000000     4.908000000
H     1.772000000    -6.240000000     5.877000000
O     8.239000000    -1.534000000     3.132000000
H     8.161000000    -0.608000000     3.363000000
H     7.839000000    -1.598000000     2.264000000
O     3.423000000    -1.890000000     5.739000000
H     3.053000000    -1.874000000     4.857000000
H     4.365000000    -1.782000000     5.606000000
O     4.097000000    -0.763000000     8.431000000
H     4.184000000    -0.221000000     7.647000000
H     4.525000000    -1.588000000     8.201000000
O     7.980000000     0.799000000    -0.413000000
H     8.417000000     0.994000000    -1.242000000
H     7.464000000     0.014000000    -0.594000000
O     2.637000000    -3.624000000     7.681000000
H     2.590000000    -4.448000000     7.198000000
H     2.747000000    -2.956000000     7.005000000
O     4.791000000     2.291000000     3.593000000
H     5.180000000     1.777000000     2.885000000
H     3.862000000     2.064000000     3.571000000
O     4.046000000     1.430000000     6.594000000
H     3.868000000     1.124000000     5.705000000
H     4.127000000     2.380000000     6.508000000
O     7.806000000     1.101000000     4.165000000
H     8.521000000     1.717000000     4.008000000
H     7.031000000     1.538000000     3.813000000
O     6.159000000    -4.876000000    -0.999000000
H     6.775000000    -5.601000000    -1.106000000
H     5.889000000    -4.659000000    -1.891000000
