215
-1436.21953
C    -1.452000000    -0.374000000     4.444000000
H    -1.664000000    -1.303000000     3.921000000
C    -1.906000000     0.874000000     4.070000000
C    -1.546000000     1.967000000     4.865000000
H    -1.915000000     2.969000000     4.658000000
C    -2.751000000     1.036000000     2.849000000
O    -3.729000000    -0.023000000     2.803000000
H    -2.095000000     0.922000000     1.974000000
O    -3.464000000     2.218000000     2.780000000
C    -3.359000000     2.872000000     1.586000000
C    -2.418000000     3.882000000     1.410000000
H    -1.794000000     4.033000000     2.287000000
C    -2.175000000     4.455000000     0.131000000
O    -0.907000000     5.102000000    -0.002000000
C    -2.870000000     3.986000000    -1.022000000
C    -2.504000000     4.376000000    -2.437000000
H    -3.380000000     4.521000000    -3.074000000
C    -1.578000000     3.410000000    -3.001000000
C    -2.015000000     2.353000000    -3.788000000
H    -3.076000000     2.389000000    -4.021000000
H    -2.016000000     5.351000000    -2.504000000
C    -3.913000000     3.131000000    -0.753000000
H    -4.576000000     2.813000000    -1.553000000
C    -4.139000000     2.511000000     0.484000000
C    -5.268000000     1.435000000     0.642000000
H    -6.061000000     1.590000000    -0.092000000
H    -5.795000000     1.525000000     1.594000000
C    -4.716000000    -0.011000000     0.559000000
C    -4.967000000    -0.676000000    -0.621000000
H    -5.534000000    -0.233000000    -1.436000000
C    -4.003000000    -0.662000000     1.609000000
C    -3.593000000    -1.930000000     1.416000000
H    -3.059000000    -2.407000000     2.234000000
C    -3.776000000    -2.591000000     0.227000000
O    -3.115000000    -3.783000000     0.151000000
C    -1.816000000    -3.797000000    -0.460000000
C    -0.789000000    -4.724000000     0.279000000
C     0.286000000    -5.249000000    -0.460000000
H     0.338000000    -4.913000000    -1.492000000
C    -0.902000000    -4.943000000     1.667000000
H    -1.748000000    -4.565000000     2.236000000
O    -2.055000000    -4.254000000    -1.836000000
H    -1.446000000    -2.762000000    -0.437000000
C    -4.408000000    -1.957000000    -0.868000000
C    -4.486000000    -2.638000000    -2.235000000
H    -5.322000000    -2.252000000    -2.822000000
H    -4.680000000    -3.707000000    -2.125000000
C    -3.207000000    -2.394000000    -2.985000000
C    -3.027000000    -1.244000000    -3.798000000
H    -3.868000000    -0.589000000    -4.011000000
C    -2.104000000    -3.258000000    -2.725000000
C    -0.965000000    -3.038000000    -3.514000000
H    -0.112000000    -3.699000000    -3.387000000
C    -0.749000000    -1.880000000    -4.271000000
O     0.518000000    -1.637000000    -4.753000000
C     1.259000000    -0.654000000    -3.928000000
C     2.741000000    -1.056000000    -3.891000000
C     3.094000000    -2.348000000    -3.911000000
H     2.355000000    -3.146000000    -3.932000000
C     3.739000000    -0.090000000    -3.596000000
H     3.516000000     0.950000000    -3.374000000
O     1.197000000     0.626000000    -4.597000000
H     0.737000000    -0.641000000    -2.960000000
C    -1.835000000    -0.983000000    -4.492000000
C    -1.695000000     0.324000000    -5.261000000
H    -2.721000000     0.604000000    -5.511000000
H    -0.971000000     0.230000000    -6.073000000
C    -1.154000000     1.414000000    -4.363000000
C     0.237000000     1.551000000    -4.165000000
C     0.684000000     2.506000000    -3.263000000
H     1.743000000     2.414000000    -3.032000000
C    -0.181000000     3.475000000    -2.739000000
O     0.368000000     4.324000000    -1.902000000
C     0.100000000     4.189000000    -0.505000000
H    -0.107000000     3.115000000    -0.386000000
C     1.392000000     4.345000000     0.327000000
C     1.332000000     4.548000000     1.720000000
H     0.417000000     4.556000000     2.307000000
C     2.663000000     4.253000000    -0.317000000
H     2.730000000     4.107000000    -1.392000000
C     3.820000000     4.443000000     0.390000000
O     5.050000000     4.306000000    -0.207000000
C     3.793000000     4.857000000     1.760000000
H     4.744000000     4.891000000     2.285000000
C     2.529000000     4.933000000     2.391000000
O     2.441000000     5.368000000     3.757000000
C     1.401000000     5.339000000     4.637000000
C     1.041000000     4.184000000     5.255000000
H     1.627000000     3.322000000     4.947000000
C     0.778000000     6.526000000     5.066000000
H     1.140000000     7.388000000     4.512000000
C    -0.319000000     6.401000000     5.906000000
H    -0.955000000     7.246000000     6.156000000
C    -0.665000000     5.226000000     6.543000000
H    -1.581000000     5.158000000     7.123000000
C     0.055000000     4.082000000     6.208000000
O    -0.296000000     2.867000000     6.792000000
C    -0.766000000     1.816000000     6.049000000
C    -0.338000000     0.577000000     6.408000000
H     0.180000000     0.357000000     7.338000000
C    -0.669000000    -0.546000000     5.652000000
O    -0.298000000    -1.776000000     6.178000000
C    -0.811000000    -2.974000000     5.699000000
C    -0.030000000    -3.830000000     4.878000000
H     0.898000000    -3.457000000     4.453000000
C    -2.049000000    -3.406000000     6.224000000
H    -2.706000000    -2.905000000     6.930000000
C    -2.475000000    -4.705000000     5.896000000
H    -3.354000000    -5.124000000     6.378000000
C    -1.753000000    -5.570000000     5.049000000
H    -2.072000000    -6.598000000     4.892000000
C    -0.537000000    -5.043000000     4.602000000
O     0.143000000    -5.837000000     3.683000000
C     0.115000000    -5.663000000     2.295000000
C     1.160000000    -6.259000000     1.535000000
H     1.996000000    -6.804000000     1.966000000
C     1.295000000    -5.990000000     0.138000000
O     2.326000000    -6.570000000    -0.565000000
C     2.561000000    -6.279000000    -1.871000000
C     3.580000000    -5.373000000    -2.208000000
H     4.137000000    -4.844000000    -1.438000000
C     1.781000000    -6.854000000    -2.857000000
H     1.083000000    -7.636000000    -2.568000000
C     1.999000000    -6.649000000    -4.151000000
H     1.253000000    -7.019000000    -4.850000000
C     2.999000000    -5.737000000    -4.463000000
H     3.262000000    -5.543000000    -5.500000000
C     3.783000000    -5.035000000    -3.545000000
O     4.749000000    -4.130000000    -3.926000000
C     4.427000000    -2.748000000    -3.862000000
C     5.393000000    -1.767000000    -3.661000000
H     6.408000000    -2.149000000    -3.587000000
C     5.089000000    -0.377000000    -3.540000000
O     6.061000000     0.560000000    -3.082000000
C     5.830000000     1.951000000    -2.878000000
C     5.961000000     2.819000000    -3.990000000
H     6.319000000     2.384000000    -4.919000000
C     5.787000000     4.179000000    -3.851000000
H     5.792000000     4.751000000    -4.775000000
C     5.537000000     4.683000000    -2.565000000
H     5.364000000     5.747000000    -2.420000000
C     5.345000000     3.810000000    -1.457000000
C     5.415000000     2.411000000    -1.619000000
H     5.237000000     1.795000000    -0.742000000
C     1.235000000    -1.484000000     1.013000000
H     0.709000000    -2.353000000     1.400000000
C     0.505000000    -0.501000000     0.443000000
H    -0.570000000    -0.563000000     0.597000000
C     1.059000000     0.495000000    -0.244000000
H     0.479000000     1.246000000    -0.691000000
C     2.449000000     0.661000000    -0.250000000
H     2.844000000     1.546000000    -0.743000000
C     3.290000000    -0.307000000     0.342000000
H     4.373000000    -0.359000000     0.417000000
C     2.617000000    -1.412000000     0.921000000
C     3.443000000    -2.601000000     1.340000000
O     4.513000000    -2.814000000     0.808000000
O     3.229000000    -3.172000000     2.395000000
O     9.596000000    -3.768000000     2.926000000
H    10.509000000    -3.715000000     2.643000000
H     9.417000000    -4.707000000     2.982000000
O     6.448000000    -5.162000000     5.100000000
H     5.975000000    -5.022000000     4.279000000
H     5.791000000    -5.021000000     5.782000000
O     2.834000000    -0.337000000     5.910000000
H     3.372000000    -1.067000000     5.603000000
H     1.992000000    -0.459000000     5.472000000
O     9.412000000     1.714000000     0.632000000
H     8.562000000     1.277000000     0.575000000
H     9.945000000     1.290000000    -0.041000000
O     6.173000000     1.709000000     1.543000000
H     6.253000000     0.959000000     0.953000000
H     5.915000000     1.328000000     2.382000000
O     6.255000000    -3.120000000     2.796000000
H     5.754000000    -3.157000000     1.981000000
H     7.080000000    -3.559000000     2.590000000
O     6.926000000    -0.554000000     3.872000000
H     7.780000000    -0.764000000     3.494000000
H     6.427000000    -1.368000000     3.805000000
O     5.439000000    -5.606000000     1.009000000
H     4.711000000    -4.988000000     0.943000000
H     6.197000000    -5.118000000     0.686000000
O     4.785000000    -8.690000000     0.841000000
H     5.059000000    -7.792000000     1.027000000
H     4.115000000    -8.877000000     1.498000000
O     7.031000000    -2.796000000     6.800000000
H     7.115000000    -3.214000000     7.657000000
H     7.262000000    -3.484000000     6.175000000
O     7.310000000    -2.930000000    -0.227000000
H     7.593000000    -3.486000000    -0.953000000
H     6.366000000    -2.834000000    -0.353000000
O     3.896000000    -5.582000000     3.480000000
H     3.513000000    -4.723000000     3.302000000
H     4.475000000    -5.745000000     2.736000000
O     2.919000000    -7.736000000     4.918000000
H     3.267000000    -6.946000000     4.505000000
H     3.219000000    -7.685000000     5.825000000
O     5.791000000     1.249000000     5.951000000
H     6.645000000     1.489000000     6.309000000
H     5.992000000     0.652000000     5.231000000
O     3.985000000    -2.593000000     4.772000000
H     3.666000000    -2.677000000     3.874000000
H     4.931000000    -2.723000000     4.704000000
O     9.476000000    -1.616000000     0.470000000
H     8.950000000    -2.413000000     0.543000000
H     9.315000000    -1.304000000    -0.420000000
O     7.215000000     0.003000000    -0.360000000
H     7.291000000    -0.940000000    -0.214000000
H     7.684000000     0.157000000    -1.180000000
O     2.764000000    -3.867000000     6.816000000
H     3.477000000    -4.471000000     7.022000000
H     3.010000000    -3.483000000     5.975000000
O     8.230000000    -4.993000000    -2.351000000
H     8.264000000    -5.782000000    -1.810000000
H     9.125000000    -4.884000000    -2.673000000
