215
-1453.00341
C    -2.380000000    -1.272000000    -3.987000000
H    -1.719000000    -2.135000000    -3.954000000
C    -1.971000000     0.062000000    -4.082000000
C    -2.964000000     1.026000000    -4.280000000
H    -2.666000000     2.060000000    -4.436000000
C    -0.468000000     0.379000000    -4.194000000
O     0.318000000    -0.628000000    -4.951000000
H    -0.067000000     0.407000000    -3.170000000
O    -0.197000000     1.660000000    -4.889000000
C     0.577000000     2.471000000    -4.088000000
C    -0.044000000     3.284000000    -3.102000000
H    -1.131000000     3.260000000    -3.083000000
C     0.689000000     4.043000000    -2.211000000
O    -0.019000000     4.712000000    -1.213000000
C     2.077000000     3.964000000    -2.173000000
C     2.882000000     4.698000000    -1.104000000
H     3.902000000     4.855000000    -1.462000000
C     2.922000000     3.882000000     0.226000000
C     4.027000000     3.056000000     0.478000000
H     4.820000000     2.998000000    -0.263000000
H     2.446000000     5.698000000    -1.055000000
C     2.696000000     3.158000000    -3.183000000
H     3.779000000     3.126000000    -3.272000000
C     1.971000000     2.392000000    -4.097000000
C     2.642000000     1.298000000    -4.849000000
H     3.700000000     1.513000000    -5.014000000
H     2.187000000     1.259000000    -5.841000000
C     2.558000000    -0.097000000    -4.180000000
C     3.648000000    -0.457000000    -3.415000000
H     4.571000000     0.108000000    -3.311000000
C     1.486000000    -0.960000000    -4.341000000
C     1.492000000    -2.230000000    -3.707000000
H     0.624000000    -2.868000000    -3.847000000
C     2.539000000    -2.499000000    -2.819000000
O     2.366000000    -3.672000000    -2.110000000
C     2.103000000    -3.548000000    -0.737000000
C     0.938000000    -4.545000000    -0.441000000
C     0.547000000    -4.594000000     0.893000000
H     1.050000000    -3.992000000     1.645000000
C     0.157000000    -5.220000000    -1.424000000
H     0.366000000    -5.162000000    -2.489000000
O     3.340000000    -3.776000000     0.108000000
H     1.773000000    -2.533000000    -0.471000000
C     3.629000000    -1.672000000    -2.790000000
C     4.737000000    -2.188000000    -1.853000000
H     5.597000000    -1.661000000    -2.272000000
H     4.981000000    -3.248000000    -1.941000000
C     4.616000000    -1.783000000    -0.333000000
C     4.981000000    -0.517000000     0.108000000
H     5.354000000     0.181000000    -0.638000000
C     3.979000000    -2.656000000     0.561000000
C     3.703000000    -2.204000000     1.938000000
H     3.146000000    -2.739000000     2.703000000
C     4.157000000    -0.937000000     2.293000000
O     3.838000000    -0.484000000     3.507000000
C     2.667000000     0.296000000     3.711000000
C     1.820000000    -0.117000000     4.868000000
C     1.799000000    -1.468000000     5.347000000
H     2.455000000    -2.165000000     4.832000000
C     0.899000000     0.836000000     5.343000000
H     0.905000000     1.871000000     5.010000000
O     3.095000000     1.617000000     3.764000000
H     1.990000000     0.158000000     2.855000000
C     4.861000000    -0.126000000     1.423000000
C     5.279000000     1.296000000     1.791000000
H     6.166000000     1.511000000     1.192000000
H     5.642000000     1.371000000     2.818000000
C     4.131000000     2.264000000     1.606000000
C     3.119000000     2.405000000     2.619000000
C     2.013000000     3.187000000     2.391000000
H     1.287000000     3.334000000     3.186000000
C     1.926000000     3.899000000     1.162000000
O     0.735000000     4.528000000     0.974000000
C    -0.259000000     3.948000000     0.031000000
H    -0.152000000     2.856000000    -0.038000000
C    -1.694000000     4.060000000     0.459000000
C    -2.723000000     4.539000000    -0.338000000
H    -2.395000000     4.933000000    -1.296000000
C    -2.047000000     3.525000000     1.686000000
H    -1.258000000     3.016000000     2.234000000
C    -3.382000000     3.461000000     2.105000000
O    -3.782000000     2.824000000     3.315000000
C    -4.374000000     4.069000000     1.379000000
H    -5.402000000     4.206000000     1.703000000
C    -4.088000000     4.592000000     0.096000000
O    -5.090000000     5.062000000    -0.705000000
C    -5.056000000     4.703000000    -2.005000000
C    -5.164000000     3.348000000    -2.378000000
H    -5.386000000     2.608000000    -1.612000000
C    -4.862000000     5.716000000    -2.951000000
H    -4.874000000     6.754000000    -2.630000000
C    -4.890000000     5.422000000    -4.297000000
H    -4.788000000     6.264000000    -4.977000000
C    -5.060000000     4.091000000    -4.658000000
H    -5.186000000     3.791000000    -5.695000000
C    -5.123000000     3.049000000    -3.725000000
O    -5.248000000     1.802000000    -4.193000000
C    -4.292000000     0.781000000    -4.009000000
C    -4.657000000    -0.554000000    -3.863000000
H    -5.721000000    -0.762000000    -3.785000000
C    -3.701000000    -1.571000000    -3.825000000
O    -4.116000000    -2.833000000    -3.602000000
C    -3.412000000    -3.994000000    -3.799000000
C    -2.857000000    -4.723000000    -2.672000000
H    -3.036000000    -4.282000000    -1.694000000
C    -3.222000000    -4.458000000    -5.089000000
H    -3.644000000    -3.833000000    -5.872000000
C    -2.662000000    -5.697000000    -5.312000000
H    -2.655000000    -6.162000000    -6.294000000
C    -2.101000000    -6.413000000    -4.243000000
H    -1.634000000    -7.382000000    -4.400000000
C    -2.313000000    -6.016000000    -2.905000000
O    -1.673000000    -6.700000000    -1.933000000
C    -0.925000000    -6.015000000    -0.995000000
C    -1.207000000    -6.139000000     0.326000000
H    -1.972000000    -6.853000000     0.620000000
C    -0.489000000    -5.458000000     1.301000000
O    -0.835000000    -5.524000000     2.652000000
C     0.052000000    -5.409000000     3.715000000
C    -0.087000000    -4.376000000     4.662000000
H    -0.942000000    -3.713000000     4.548000000
C     1.164000000    -6.251000000     3.738000000
H     1.207000000    -7.093000000     3.052000000
C     2.123000000    -6.117000000     4.715000000
H     3.006000000    -6.750000000     4.705000000
C     2.052000000    -5.001000000     5.609000000
H     2.817000000    -4.805000000     6.356000000
C     0.925000000    -4.188000000     5.658000000
O     0.883000000    -3.185000000     6.662000000
C     0.910000000    -1.841000000     6.336000000
C     0.011000000    -0.881000000     6.895000000
H    -0.742000000    -1.285000000     7.566000000
C     0.043000000     0.446000000     6.425000000
O    -0.979000000     1.287000000     6.904000000
C    -1.632000000     2.288000000     6.292000000
C    -1.690000000     3.531000000     6.882000000
H    -1.268000000     3.624000000     7.880000000
C    -2.421000000     4.553000000     6.276000000
H    -2.549000000     5.547000000     6.696000000
C    -3.148000000     4.310000000     5.119000000
H    -3.728000000     5.129000000     4.702000000
C    -3.043000000     3.071000000     4.470000000
C    -2.282000000     2.068000000     5.076000000
H    -2.390000000     1.071000000     4.657000000
C    -0.571000000    -1.165000000     1.525000000
H    -0.323000000    -1.827000000     2.351000000
C     0.463000000    -0.747000000     0.703000000
H     1.465000000    -1.101000000     0.931000000
C     0.321000000     0.156000000    -0.390000000
H     1.245000000     0.488000000    -0.867000000
C    -0.916000000     0.702000000    -0.568000000
H    -0.866000000     1.438000000    -1.367000000
C    -1.944000000     0.351000000     0.312000000
H    -2.843000000     0.960000000     0.281000000
C    -1.868000000    -0.542000000     1.348000000
C    -2.975000000    -0.855000000     2.313000000
O    -4.118000000    -0.859000000     1.877000000
O    -2.724000000    -1.487000000     3.362000000
O    -5.694000000     1.456000000     2.192000000
H    -5.314000000     2.001000000     2.881000000
H    -5.162000000     0.660000000     2.195000000
O    -3.407000000    -4.098000000     2.569000000
H    -3.256000000    -3.208000000     2.887000000
H    -2.539000000    -4.502000000     2.566000000
O    -4.855000000    -1.091000000    -0.645000000
H    -4.034000000    -1.003000000    -1.130000000
H    -4.612000000    -0.936000000     0.267000000
O    -8.166000000     1.782000000     1.132000000
H    -7.272000000     1.729000000     1.471000000
H    -8.462000000     2.659000000     1.375000000
O    -7.309000000    -0.835000000     0.182000000
H    -7.413000000     0.062000000     0.498000000
H    -6.430000000    -0.854000000    -0.198000000
O    -5.904000000    -3.495000000    -1.125000000
H    -5.495000000    -2.637000000    -1.018000000
H    -5.938000000    -3.627000000    -2.073000000
O    -9.454000000    -3.667000000     1.320000000
H    -8.892000000    -3.701000000     2.094000000
H    -9.383000000    -2.763000000     1.013000000
O    -3.519000000    -7.245000000     2.652000000
H    -2.753000000    -7.152000000     3.219000000
H    -3.636000000    -6.378000000     2.264000000
O    -8.546000000    -0.397000000     5.087000000
H    -8.582000000    -1.106000000     5.728000000
H    -7.612000000    -0.273000000     4.919000000
O    -5.699000000    -0.364000000     4.494000000
H    -5.794000000    -0.984000000     3.771000000
H    -4.912000000    -0.654000000     4.955000000
O    -9.696000000    -0.742000000     1.966000000
H    -9.440000000    -0.537000000     2.865000000
H    -9.416000000     0.018000000     1.457000000
O    -6.218000000    -2.514000000     2.279000000
H    -6.774000000    -2.142000000     1.594000000
H    -5.365000000    -2.100000000     2.146000000
O    -6.860000000    -5.984000000     3.602000000
H    -7.387000000    -5.403000000     4.151000000
H    -6.033000000    -5.517000000     3.483000000
O    -3.794000000     0.547000000     8.513000000
H    -3.636000000    -0.143000000     7.868000000
H    -3.285000000     0.280000000     9.278000000
O    -8.583000000    -2.575000000    -1.546000000
H    -8.173000000    -2.599000000    -2.410000000
H    -7.912000000    -2.204000000    -0.973000000
O    -3.668000000    -2.993000000     7.784000000
H    -3.772000000    -2.716000000     8.694000000
H    -4.482000000    -3.453000000     7.579000000
O    -5.129000000     2.318000000     7.198000000
H    -4.527000000     1.645000000     7.514000000
H    -4.998000000     2.331000000     6.250000000
O    -3.234000000    -1.043000000     5.909000000
H    -2.955000000    -1.828000000     6.380000000
H    -3.119000000    -1.265000000     4.985000000
O    -4.887000000    -5.277000000     0.881000000
H    -4.439000000    -4.577000000     1.356000000
H    -5.402000000    -4.823000000     0.215000000
