215
-1438.60906
C    -2.125000000     0.957000000     5.270000000
H    -2.997000000     0.317000000     5.160000000
C    -1.627000000     1.841000000     4.303000000
C    -0.479000000     2.596000000     4.560000000
H    -0.164000000     3.461000000     3.981000000
C    -2.415000000     2.118000000     3.023000000
O    -3.747000000     1.609000000     3.168000000
H    -2.044000000     1.697000000     2.077000000
O    -2.470000000     3.535000000     2.721000000
C    -2.258000000     3.832000000     1.336000000
C    -1.045000000     4.318000000     0.961000000
H    -0.201000000     4.425000000     1.638000000
C    -0.710000000     4.402000000    -0.456000000
O     0.592000000     4.565000000    -0.816000000
C    -1.727000000     4.246000000    -1.435000000
C    -1.457000000     4.443000000    -2.914000000
H    -2.343000000     4.663000000    -3.514000000
C    -0.845000000     3.224000000    -3.561000000
C    -1.772000000     2.301000000    -4.104000000
H    -2.840000000     2.506000000    -4.109000000
H    -0.769000000     5.266000000    -3.118000000
C    -2.940000000     3.807000000    -1.002000000
H    -3.758000000     3.608000000    -1.689000000
C    -3.228000000     3.604000000     0.395000000
C    -4.630000000     3.118000000     0.819000000
H    -5.354000000     3.464000000     0.079000000
H    -4.803000000     3.649000000     1.757000000
C    -4.768000000     1.564000000     0.934000000
C    -5.068000000     0.784000000    -0.153000000
H    -5.424000000     1.316000000    -1.032000000
C    -4.230000000     0.906000000     2.091000000
C    -4.060000000    -0.448000000     2.119000000
H    -3.657000000    -0.972000000     2.982000000
C    -4.305000000    -1.188000000     1.027000000
O    -3.922000000    -2.490000000     1.143000000
C    -2.783000000    -2.860000000     0.378000000
C    -1.725000000    -3.696000000     1.214000000
C    -0.824000000    -4.518000000     0.630000000
H    -0.837000000    -4.741000000    -0.434000000
C    -1.652000000    -3.501000000     2.611000000
H    -2.344000000    -2.842000000     3.129000000
O    -3.102000000    -3.472000000    -0.852000000
H    -2.236000000    -1.996000000    -0.029000000
C    -4.902000000    -0.624000000    -0.125000000
C    -5.237000000    -1.450000000    -1.374000000
H    -5.984000000    -0.864000000    -1.914000000
H    -5.705000000    -2.408000000    -1.136000000
C    -3.955000000    -1.659000000    -2.139000000
C    -3.627000000    -0.720000000    -3.098000000
H    -4.168000000     0.216000000    -3.202000000
C    -3.137000000    -2.759000000    -2.016000000
C    -2.040000000    -2.945000000    -2.840000000
H    -1.357000000    -3.750000000    -2.582000000
C    -1.764000000    -2.047000000    -3.875000000
O    -0.566000000    -2.239000000    -4.545000000
C     0.570000000    -1.438000000    -4.171000000
C     1.864000000    -2.207000000    -4.235000000
C     1.916000000    -3.589000000    -3.953000000
H     1.027000000    -4.160000000    -3.698000000
C     3.050000000    -1.574000000    -4.589000000
H     3.104000000    -0.517000000    -4.838000000
O     0.618000000    -0.296000000    -5.101000000
H     0.510000000    -1.078000000    -3.134000000
C    -2.601000000    -0.970000000    -4.008000000
C    -2.342000000     0.035000000    -5.138000000
H    -3.274000000     0.532000000    -5.418000000
H    -1.831000000    -0.461000000    -5.966000000
C    -1.300000000     1.067000000    -4.648000000
C     0.047000000     0.871000000    -4.749000000
C     0.935000000     1.805000000    -4.276000000
H     1.978000000     1.554000000    -4.100000000
C     0.496000000     2.971000000    -3.593000000
O     1.349000000     3.715000000    -2.854000000
C     1.371000000     3.558000000    -1.355000000
H     0.933000000     2.568000000    -1.158000000
C     2.772000000     3.570000000    -0.827000000
C     2.994000000     4.135000000     0.416000000
H     2.269000000     4.801000000     0.875000000
C     3.774000000     2.838000000    -1.448000000
H     3.614000000     2.332000000    -2.397000000
C     5.044000000     2.688000000    -0.861000000
O     5.958000000     1.834000000    -1.420000000
C     5.143000000     3.032000000     0.491000000
H     6.054000000     2.800000000     1.035000000
C     4.147000000     3.746000000     1.162000000
O     4.408000000     4.139000000     2.446000000
C     3.424000000     4.541000000     3.357000000
C     2.876000000     3.647000000     4.264000000
H     3.091000000     2.587000000     4.154000000
C     3.099000000     5.872000000     3.509000000
H     3.590000000     6.564000000     2.829000000
C     2.259000000     6.300000000     4.493000000
H     1.900000000     7.325000000     4.443000000
C     1.635000000     5.423000000     5.312000000
H     0.818000000     5.763000000     5.945000000
C     1.941000000     4.101000000     5.210000000
O     1.231000000     3.297000000     6.022000000
C     0.211000000     2.422000000     5.739000000
C    -0.248000000     1.565000000     6.705000000
H     0.257000000     1.360000000     7.645000000
C    -1.404000000     0.783000000     6.442000000
O    -1.678000000    -0.185000000     7.352000000
C    -1.855000000    -1.467000000     6.955000000
C    -1.058000000    -2.019000000     5.970000000
H    -0.276000000    -1.409000000     5.524000000
C    -2.901000000    -2.152000000     7.480000000
H    -3.516000000    -1.565000000     8.158000000
C    -3.146000000    -3.475000000     7.128000000
H    -3.865000000    -4.069000000     7.686000000
C    -2.292000000    -4.060000000     6.171000000
H    -2.414000000    -5.097000000     5.868000000
C    -1.277000000    -3.308000000     5.550000000
O    -0.426000000    -3.878000000     4.681000000
C    -0.654000000    -4.075000000     3.369000000
C     0.175000000    -4.892000000     2.718000000
H     0.853000000    -5.473000000     3.338000000
C     0.090000000    -5.163000000     1.386000000
O     0.987000000    -6.102000000     0.860000000
C     1.117000000    -6.420000000    -0.446000000
C     1.999000000    -5.798000000    -1.398000000
H     2.598000000    -4.970000000    -1.027000000
C     0.253000000    -7.403000000    -0.950000000
H    -0.510000000    -7.867000000    -0.330000000
C     0.336000000    -7.759000000    -2.271000000
H    -0.331000000    -8.542000000    -2.624000000
C     1.345000000    -7.224000000    -3.112000000
H     1.417000000    -7.601000000    -4.129000000
C     2.226000000    -6.235000000    -2.664000000
O     3.173000000    -5.563000000    -3.475000000
C     3.116000000    -4.283000000    -3.842000000
C     4.314000000    -3.646000000    -4.146000000
H     5.256000000    -4.131000000    -3.904000000
C     4.277000000    -2.289000000    -4.531000000
O     5.504000000    -1.648000000    -4.755000000
C     5.731000000    -0.303000000    -4.443000000
C     5.916000000     0.614000000    -5.431000000
H     6.027000000     0.336000000    -6.477000000
C     6.018000000     1.964000000    -5.116000000
H     6.197000000     2.748000000    -5.848000000
C     5.941000000     2.324000000    -3.770000000
H     6.030000000     3.372000000    -3.492000000
C     5.909000000     1.393000000    -2.710000000
C     5.846000000     0.046000000    -3.059000000
H     5.859000000    -0.728000000    -2.295000000
C     0.825000000    -0.387000000     2.258000000
H     0.229000000    -0.607000000     3.140000000
C     0.001000000    -0.110000000     1.173000000
H    -1.050000000    -0.316000000     1.359000000
C     0.573000000     0.332000000     0.038000000
H    -0.073000000     0.468000000    -0.850000000
C     1.952000000     0.437000000    -0.098000000
H     2.278000000     0.625000000    -1.117000000
C     2.784000000     0.245000000     0.974000000
H     3.854000000     0.377000000     0.834000000
C     2.208000000    -0.189000000     2.214000000
C     3.011000000    -0.184000000     3.521000000
O     4.231000000     0.125000000     3.447000000
O     2.543000000    -0.662000000     4.576000000
O     6.493000000     4.108000000     6.349000000
H     5.682000000     4.256000000     6.835000000
H     6.264000000     3.447000000     5.696000000
O     3.750000000     0.934000000     6.756000000
H     2.989000000     0.686000000     6.230000000
H     4.409000000     1.197000000     6.114000000
O     7.836000000    -0.958000000     4.291000000
H     7.845000000    -1.105000000     3.345000000
H     8.708000000    -0.618000000     4.490000000
O     7.238000000    -4.317000000     2.397000000
H     7.285000000    -3.924000000     3.269000000
H     7.733000000    -3.717000000     1.838000000
O     5.599000000     1.850000000     5.001000000
H     6.443000000     1.899000000     4.552000000
H     5.119000000     1.165000000     4.536000000
O     4.745000000    -0.986000000     8.241000000
H     5.642000000    -1.098000000     7.926000000
H     4.448000000    -0.173000000     7.833000000
O     1.018000000    -4.161000000     7.750000000
H     1.497000000    -3.376000000     7.484000000
H     0.676000000    -4.522000000     6.931000000
O     5.374000000    -1.437000000     5.295000000
H     6.313000000    -1.299000000     5.168000000
H     4.958000000    -0.832000000     4.681000000
O     4.305000000    -6.137000000     5.649000000
H     4.233000000    -5.245000000     5.309000000
H     5.106000000    -6.480000000     5.254000000
O     8.081000000     2.295000000     3.434000000
H     8.159000000     3.014000000     2.807000000
H     8.851000000     2.384000000     3.995000000
O     6.394000000     0.331000000     1.872000000
H     5.595000000     0.088000000     2.339000000
H     6.864000000     0.902000000     2.480000000
O     1.709000000    -2.789000000     0.099000000
H     0.800000000    -3.048000000     0.249000000
H     1.724000000    -1.850000000     0.282000000
O     3.502000000    -3.291000000     4.736000000
H     2.827000000    -2.668000000     4.467000000
H     4.217000000    -2.744000000     5.062000000
O     0.962000000    -0.937000000     9.343000000
H     1.627000000    -1.494000000     9.747000000
H     1.374000000    -0.614000000     8.542000000
O     8.643000000     0.480000000     0.312000000
H     8.903000000    -0.441000000     0.296000000
H     7.740000000     0.469000000     0.628000000
O     3.370000000     2.146000000     9.238000000
H     4.139000000     1.759000000     9.655000000
H     3.272000000     1.661000000     8.418000000
O     2.322000000    -1.868000000     6.952000000
H     3.212000000    -1.730000000     7.277000000
H     2.350000000    -1.568000000     6.044000000
O     4.649000000    -3.302000000    -0.022000000
H     3.700000000    -3.269000000     0.100000000
H     5.007000000    -2.982000000     0.806000000
O     6.887000000    -3.991000000     6.085000000
H     7.328000000    -3.225000000     6.451000000
H     6.181000000    -4.179000000     6.703000000
