215
-1442.63204
C     1.784000000     2.571000000    -4.665000000
H     1.706000000     1.671000000    -5.269000000
C     2.410000000     2.504000000    -3.413000000
C     2.436000000     3.627000000    -2.586000000
H     2.888000000     3.576000000    -1.599000000
C     2.977000000     1.186000000    -2.899000000
O     3.209000000     0.254000000    -4.029000000
H     2.183000000     0.720000000    -2.297000000
O     4.182000000     1.221000000    -2.198000000
C     4.318000000     0.499000000    -1.049000000
C     4.249000000     1.266000000     0.102000000
H     3.891000000     2.283000000    -0.039000000
C     4.309000000     0.701000000     1.340000000
O     3.862000000     1.448000000     2.420000000
C     4.621000000    -0.699000000     1.397000000
C     4.558000000    -1.438000000     2.730000000
H     5.271000000    -2.257000000     2.613000000
C     3.122000000    -1.779000000     3.028000000
C     2.670000000    -3.066000000     2.641000000
H     3.290000000    -3.720000000     2.034000000
H     5.025000000    -0.787000000     3.472000000
C     4.978000000    -1.383000000     0.204000000
H     5.247000000    -2.435000000     0.268000000
C     4.809000000    -0.800000000    -1.040000000
C     4.887000000    -1.586000000    -2.352000000
H     5.492000000    -2.487000000    -2.235000000
H     5.358000000    -0.978000000    -3.127000000
C     3.531000000    -1.882000000    -2.893000000
C     3.025000000    -3.135000000    -2.588000000
H     3.514000000    -3.851000000    -1.932000000
C     2.778000000    -0.965000000    -3.662000000
C     1.546000000    -1.314000000    -4.059000000
H     0.927000000    -0.662000000    -4.669000000
C     0.994000000    -2.559000000    -3.765000000
O    -0.359000000    -2.867000000    -4.041000000
C    -1.317000000    -2.666000000    -3.012000000
C    -2.646000000    -1.972000000    -3.461000000
C    -3.925000000    -2.371000000    -3.051000000
H    -4.058000000    -3.221000000    -2.386000000
C    -2.511000000    -0.836000000    -4.250000000
H    -1.501000000    -0.499000000    -4.468000000
O    -1.587000000    -3.980000000    -2.464000000
H    -0.839000000    -1.951000000    -2.326000000
C     1.733000000    -3.456000000    -3.027000000
C     1.136000000    -4.798000000    -2.550000000
H     1.974000000    -5.479000000    -2.391000000
H     0.651000000    -5.387000000    -3.331000000
C     0.289000000    -4.630000000    -1.311000000
C     0.907000000    -4.801000000    -0.077000000
H     1.928000000    -5.162000000     0.015000000
C    -1.052000000    -4.286000000    -1.341000000
C    -1.763000000    -4.030000000    -0.197000000
H    -2.830000000    -3.844000000    -0.296000000
C    -1.148000000    -4.261000000     1.049000000
O    -1.888000000    -3.892000000     2.160000000
C    -1.542000000    -2.603000000     2.758000000
C    -2.791000000    -1.812000000     3.154000000
C    -3.886000000    -1.669000000     2.277000000
H    -3.828000000    -2.167000000     1.313000000
C    -2.811000000    -1.193000000     4.409000000
H    -1.927000000    -1.209000000     5.041000000
O    -0.745000000    -2.892000000     3.936000000
H    -1.033000000    -1.906000000     2.076000000
C     0.184000000    -4.685000000     1.078000000
C     0.902000000    -4.882000000     2.410000000
H     1.746000000    -5.565000000     2.293000000
H     0.244000000    -5.295000000     3.177000000
C     1.440000000    -3.570000000     3.024000000
C     0.660000000    -2.732000000     3.792000000
C     1.037000000    -1.485000000     4.179000000
H     0.267000000    -0.883000000     4.656000000
C     2.336000000    -1.040000000     3.917000000
O     2.691000000     0.270000000     4.127000000
C     2.527000000     1.125000000     2.951000000
H     1.908000000     0.693000000     2.152000000
C     1.845000000     2.386000000     3.420000000
C     2.079000000     3.564000000     2.626000000
H     2.808000000     3.667000000     1.826000000
C     1.000000000     2.361000000     4.474000000
H     0.659000000     1.451000000     4.961000000
C     0.471000000     3.580000000     4.931000000
O    -0.242000000     3.604000000     6.097000000
C     0.809000000     4.792000000     4.219000000
H     0.552000000     5.745000000     4.675000000
C     1.573000000     4.764000000     3.098000000
O     1.903000000     5.953000000     2.593000000
C     2.506000000     6.170000000     1.389000000
C     1.879000000     5.841000000     0.222000000
H     0.989000000     5.218000000     0.192000000
C     3.650000000     6.990000000     1.439000000
H     4.038000000     7.399000000     2.368000000
C     4.132000000     7.453000000     0.187000000
H     4.993000000     8.111000000     0.279000000
C     3.605000000     7.084000000    -1.043000000
H     4.056000000     7.425000000    -1.971000000
C     2.449000000     6.304000000    -0.969000000
O     1.844000000     6.011000000    -2.194000000
C     1.806000000     4.777000000    -3.012000000
C     1.180000000     4.807000000    -4.243000000
H     0.590000000     5.661000000    -4.566000000
C     1.120000000     3.725000000    -5.030000000
O     0.410000000     3.713000000    -6.179000000
C    -0.350000000     2.624000000    -6.558000000
C    -1.541000000     2.357000000    -5.943000000
H    -1.820000000     2.969000000    -5.090000000
C     0.093000000     1.666000000    -7.491000000
H     1.075000000     1.732000000    -7.953000000
C    -0.711000000     0.622000000    -7.905000000
H    -0.328000000    -0.128000000    -8.591000000
C    -1.916000000     0.359000000    -7.258000000
H    -2.447000000    -0.552000000    -7.523000000
C    -2.363000000     1.271000000    -6.264000000
O    -3.444000000     0.991000000    -5.501000000
C    -3.599000000    -0.098000000    -4.681000000
C    -4.943000000    -0.536000000    -4.286000000
H    -5.820000000     0.055000000    -4.537000000
C    -5.047000000    -1.685000000    -3.477000000
O    -6.294000000    -1.939000000    -2.913000000
C    -6.496000000    -2.208000000    -1.548000000
C    -6.116000000    -1.300000000    -0.645000000
H    -5.723000000    -0.342000000    -0.976000000
C    -6.950000000    -3.399000000    -1.181000000
H    -7.362000000    -4.072000000    -1.929000000
C    -7.168000000    -3.791000000     0.140000000
H    -7.498000000    -4.796000000     0.390000000
C    -6.736000000    -2.927000000     1.106000000
H    -6.881000000    -3.126000000     2.165000000
C    -6.241000000    -1.661000000     0.722000000
O    -6.004000000    -0.719000000     1.728000000
C    -4.922000000    -0.872000000     2.627000000
C    -4.982000000    -0.249000000     3.873000000
H    -5.880000000     0.268000000     4.201000000
C    -3.914000000    -0.373000000     4.768000000
O    -3.867000000     0.432000000     5.877000000
C    -2.712000000     0.871000000     6.450000000
C    -2.260000000     0.295000000     7.668000000
H    -2.737000000    -0.638000000     7.954000000
C    -1.123000000     0.806000000     8.281000000
H    -0.750000000     0.400000000     9.219000000
C    -0.450000000     1.903000000     7.730000000
H     0.435000000     2.260000000     8.251000000
C    -0.995000000     2.547000000     6.599000000
C    -2.111000000     2.030000000     5.910000000
H    -2.381000000     2.569000000     5.005000000
C    -2.238000000     0.479000000    -0.973000000
H    -3.130000000    -0.054000000    -1.291000000
C    -1.328000000    -0.272000000    -0.222000000
H    -1.577000000    -1.276000000     0.111000000
C    -0.065000000     0.191000000     0.036000000
H     0.629000000    -0.429000000     0.607000000
C     0.253000000     1.462000000    -0.461000000
H     1.271000000     1.839000000    -0.404000000
C    -0.697000000     2.294000000    -1.020000000
H    -0.491000000     3.333000000    -1.267000000
C    -1.958000000     1.782000000    -1.298000000
C    -3.002000000     2.593000000    -1.994000000
O    -2.899000000     3.815000000    -2.230000000
O    -4.106000000     2.114000000    -2.117000000
O    -1.806000000     5.835000000     1.631000000
H    -2.127000000     5.893000000     0.731000000
H    -1.882000000     4.907000000     1.853000000
O    -8.585000000     0.748000000     0.420000000
H    -8.526000000     1.121000000     1.300000000
H    -7.781000000     1.032000000    -0.015000000
O    -2.810000000     6.876000000    -5.509000000
H    -3.347000000     6.147000000    -5.198000000
H    -3.440000000     7.498000000    -5.874000000
O    -3.126000000     6.430000000    -2.107000000
H    -2.730000000     6.783000000    -2.904000000
H    -2.959000000     5.488000000    -2.154000000
O    -2.538000000     3.339000000     1.978000000
H    -3.374000000     2.889000000     1.861000000
H    -1.879000000     2.684000000     1.748000000
O    -4.733000000     4.975000000    -0.276000000
H    -4.168000000     4.243000000    -0.523000000
H    -4.339000000     5.736000000    -0.702000000
O    -0.227000000     8.000000000     2.028000000
H    -0.951000000     7.453000000     1.725000000
H     0.334000000     7.403000000     2.523000000
O    -0.765000000     7.480000000    -3.103000000
H    -0.033000000     6.933000000    -2.817000000
H    -0.681000000     7.513000000    -4.056000000
O    -5.019000000     2.463000000     1.676000000
H    -5.718000000     1.838000000     1.868000000
H    -5.039000000     3.079000000     2.409000000
O    -6.929000000     7.774000000    -2.105000000
H    -7.457000000     8.134000000    -1.392000000
H    -6.101000000     8.252000000    -2.055000000
O    -6.502000000     2.089000000    -0.776000000
H    -6.013000000     2.325000000     0.012000000
H    -5.829000000     1.941000000    -1.440000000
O    -6.347000000     6.720000000    -4.512000000
H    -6.757000000     6.763000000    -3.648000000
H    -5.529000000     6.245000000    -4.365000000
O    -2.302000000     5.362000000    -8.501000000
H    -2.721000000     5.830000000    -9.223000000
H    -3.019000000     4.895000000    -8.070000000
O    -7.950000000     4.073000000    -1.829000000
H    -7.415000000     3.455000000    -1.330000000
H    -8.830000000     3.698000000    -1.809000000
O    -4.370000000     4.779000000    -4.071000000
H    -4.850000000     4.039000000    -4.443000000
H    -3.889000000     4.406000000    -3.332000000
O    -7.232000000     5.839000000     0.826000000
H    -6.362000000     5.542000000     0.561000000
H    -7.804000000     5.585000000     0.101000000
O    -8.437000000     0.699000000    -4.001000000
H    -8.344000000     0.048000000    -4.697000000
H    -7.736000000     1.329000000    -4.168000000
O    -3.421000000     8.726000000    -0.617000000
H    -3.857000000     9.313000000    -1.234000000
H    -3.203000000     7.952000000    -1.136000000
O    -6.249000000     2.644000000    -3.737000000
H    -6.782000000     2.995000000    -3.023000000
H    -5.437000000     2.364000000    -3.314000000
