215
-1497.07927
C    -1.332000000     0.051000000     5.108000000
H    -2.137000000    -0.679000000     5.072000000
C    -1.327000000     1.164000000     4.318000000
C    -0.201000000     2.016000000     4.355000000
H    -0.204000000     2.755000000     3.558000000
C    -2.373000000     1.443000000     3.338000000
O    -3.585000000     0.655000000     3.572000000
H    -1.949000000     1.235000000     2.344000000
O    -2.707000000     2.823000000     3.190000000
C    -2.787000000     3.260000000     1.879000000
C    -1.663000000     4.006000000     1.493000000
H    -0.887000000     4.187000000     2.232000000
C    -1.560000000     4.320000000     0.112000000
O    -0.317000000     4.922000000    -0.278000000
C    -2.630000000     4.072000000    -0.759000000
C    -2.555000000     4.453000000    -2.219000000
H    -3.553000000     4.532000000    -2.656000000
C    -1.752000000     3.349000000    -3.010000000
C    -2.421000000     2.297000000    -3.686000000
H    -3.508000000     2.295000000    -3.722000000
H    -2.115000000     5.450000000    -2.285000000
C    -3.800000000     3.465000000    -0.281000000
H    -4.669000000     3.293000000    -0.911000000
C    -3.869000000     2.981000000     1.044000000
C    -5.083000000     2.123000000     1.416000000
H    -5.885000000     2.240000000     0.683000000
H    -5.341000000     2.493000000     2.410000000
C    -4.636000000     0.616000000     1.413000000
C    -4.969000000    -0.175000000     0.262000000
H    -5.489000000     0.356000000    -0.532000000
C    -4.030000000    -0.063000000     2.500000000
C    -3.666000000    -1.451000000     2.393000000
H    -2.963000000    -1.949000000     3.056000000
C    -3.982000000    -2.134000000     1.207000000
O    -3.491000000    -3.385000000     1.022000000
C    -2.450000000    -3.660000000     0.168000000
C    -1.490000000    -4.646000000     0.891000000
C    -0.823000000    -5.564000000     0.092000000
H    -0.953000000    -5.647000000    -0.984000000
C    -1.219000000    -4.583000000     2.261000000
H    -1.756000000    -3.874000000     2.886000000
O    -2.835000000    -4.141000000    -1.162000000
H    -1.833000000    -2.755000000     0.072000000
C    -4.643000000    -1.532000000     0.130000000
C    -4.957000000    -2.289000000    -1.166000000
H    -5.913000000    -1.866000000    -1.483000000
H    -5.110000000    -3.339000000    -0.907000000
C    -3.788000000    -2.170000000    -2.137000000
C    -3.679000000    -1.176000000    -3.074000000
H    -4.340000000    -0.316000000    -3.147000000
C    -2.790000000    -3.181000000    -2.175000000
C    -1.755000000    -3.218000000    -3.079000000
H    -1.034000000    -4.032000000    -3.057000000
C    -1.583000000    -2.088000000    -3.907000000
O    -0.408000000    -1.908000000    -4.600000000
C     0.458000000    -0.958000000    -3.976000000
C     1.898000000    -1.474000000    -3.874000000
C     2.155000000    -2.813000000    -3.665000000
H     1.348000000    -3.540000000    -3.701000000
C     2.928000000    -0.535000000    -3.783000000
H     2.645000000     0.511000000    -3.858000000
O     0.451000000     0.277000000    -4.703000000
H     0.175000000    -0.719000000    -2.940000000
C    -2.612000000    -1.119000000    -3.958000000
C    -2.449000000     0.103000000    -4.880000000
H    -3.360000000     0.556000000    -5.275000000
H    -1.919000000    -0.179000000    -5.793000000
C    -1.699000000     1.247000000    -4.243000000
C    -0.327000000     1.333000000    -4.250000000
C     0.355000000     2.393000000    -3.639000000
H     1.428000000     2.344000000    -3.470000000
C    -0.369000000     3.429000000    -3.054000000
O     0.252000000     4.395000000    -2.353000000
C     0.549000000     4.151000000    -0.983000000
H     0.454000000     3.091000000    -0.703000000
C     1.960000000     4.587000000    -0.565000000
C     2.309000000     5.113000000     0.659000000
H     1.578000000     5.243000000     1.454000000
C     2.937000000     4.452000000    -1.559000000
H     2.739000000     4.073000000    -2.558000000
C     4.188000000     4.699000000    -1.205000000
O     5.118000000     4.576000000    -2.226000000
C     4.638000000     5.187000000     0.059000000
H     5.696000000     5.326000000     0.266000000
C     3.649000000     5.330000000     1.016000000
O     4.047000000     5.700000000     2.293000000
C     3.286000000     5.430000000     3.420000000
C     3.006000000     4.135000000     3.776000000
H     3.410000000     3.365000000     3.124000000
C     2.831000000     6.507000000     4.171000000
H     3.077000000     7.522000000     3.872000000
C     2.044000000     6.268000000     5.343000000
H     1.694000000     7.081000000     5.973000000
C     1.598000000     4.991000000     5.608000000
H     1.050000000     4.771000000     6.520000000
C     2.078000000     3.932000000     4.789000000
O     1.962000000     2.628000000     5.287000000
C     0.840000000     1.793000000     5.167000000
C     0.846000000     0.716000000     6.025000000
H     1.639000000     0.642000000     6.765000000
C    -0.193000000    -0.189000000     5.910000000
O    -0.142000000    -1.302000000     6.664000000
C    -0.678000000    -2.533000000     6.322000000
C    -0.115000000    -3.410000000     5.429000000
H     0.832000000    -3.125000000     4.979000000
C    -1.978000000    -2.882000000     6.785000000
H    -2.307000000    -2.267000000     7.619000000
C    -2.657000000    -4.035000000     6.391000000
H    -3.642000000    -4.245000000     6.800000000
C    -2.033000000    -4.850000000     5.415000000
H    -2.576000000    -5.763000000     5.187000000
C    -0.759000000    -4.606000000     4.993000000
O    -0.066000000    -5.470000000     4.156000000
C    -0.339000000    -5.516000000     2.799000000
C     0.422000000    -6.338000000     1.980000000
H     1.231000000    -6.967000000     2.343000000
C     0.210000000    -6.323000000     0.614000000
O     0.935000000    -7.114000000    -0.229000000
C     1.415000000    -6.875000000    -1.491000000
C     2.451000000    -5.990000000    -1.728000000
H     2.810000000    -5.465000000    -0.846000000
C     0.676000000    -7.366000000    -2.567000000
H    -0.192000000    -7.952000000    -2.276000000
C     1.088000000    -7.095000000    -3.850000000
H     0.698000000    -7.574000000    -4.744000000
C     2.190000000    -6.221000000    -4.059000000
H     2.353000000    -5.848000000    -5.067000000
C     2.780000000    -5.572000000    -2.994000000
O     3.729000000    -4.590000000    -3.211000000
C     3.416000000    -3.240000000    -3.380000000
C     4.465000000    -2.329000000    -3.302000000
H     5.485000000    -2.607000000    -3.050000000
C     4.205000000    -0.970000000    -3.447000000
O     5.255000000    -0.133000000    -3.283000000
C     5.301000000     1.187000000    -3.665000000
C     5.939000000     1.470000000    -4.902000000
H     6.120000000     0.576000000    -5.494000000
C     6.201000000     2.744000000    -5.300000000
H     6.679000000     2.935000000    -6.258000000
C     5.873000000     3.818000000    -4.459000000
H     6.145000000     4.830000000    -4.746000000
C     5.245000000     3.521000000    -3.190000000
C     5.053000000     2.202000000    -2.776000000
H     4.745000000     1.919000000    -1.773000000
C     1.483000000    -0.330000000     2.326000000
H     1.682000000    -0.685000000     3.333000000
C     0.218000000    -0.626000000     1.766000000
H    -0.562000000    -0.981000000     2.434000000
C    -0.111000000    -0.226000000     0.491000000
H    -1.135000000    -0.384000000     0.093000000
C     0.870000000     0.405000000    -0.306000000
H     0.695000000     0.806000000    -1.301000000
C     2.155000000     0.600000000     0.208000000
H     2.919000000     0.927000000    -0.493000000
C     2.472000000     0.243000000     1.514000000
C     3.855000000     0.421000000     2.026000000
O     4.667000000     0.862000000     1.217000000
O     4.188000000    -0.106000000     3.103000000
O     4.286000000     1.546000000     8.391000000
H     4.537000000     2.467000000     8.321000000
H     4.571000000     1.156000000     7.565000000
O     4.669000000     0.627000000     5.922000000
H     4.098000000     0.716000000     5.159000000
H     5.553000000     0.746000000     5.574000000
O     7.072000000    -2.872000000    -1.173000000
H     6.530000000    -2.115000000    -0.949000000
H     7.714000000    -2.531000000    -1.796000000
O     8.389000000     0.768000000    -0.542000000
H     7.502000000     0.420000000    -0.451000000
H     8.267000000     1.712000000    -0.647000000
O     7.864000000    -4.138000000     1.823000000
H     7.565000000    -3.294000000     2.160000000
H     8.793000000    -4.171000000     2.049000000
O     6.238000000     2.608000000     2.188000000
H     5.588000000     2.098000000     1.705000000
H     6.956000000     1.994000000     2.344000000
O     6.392000000    -1.659000000     7.288000000
H     6.185000000    -1.477000000     8.204000000
H     6.817000000    -0.860000000     6.975000000
O     6.225000000    -1.676000000     2.668000000
H     6.290000000    -2.408000000     3.281000000
H     5.462000000    -1.181000000     2.966000000
O     7.269000000     1.577000000     5.401000000
H     8.088000000     1.141000000     5.166000000
H     6.958000000     1.962000000     4.581000000
O     5.949000000    -0.543000000    -0.516000000
H     5.294000000    -0.633000000    -1.209000000
H     5.485000000    -0.101000000     0.195000000
O     2.176000000    -3.976000000     1.791000000
H     1.411000000    -3.666000000     1.307000000
H     2.895000000    -3.425000000     1.482000000
O     2.848000000    -4.736000000     4.290000000
H     3.044000000    -3.815000000     4.463000000
H     2.500000000    -4.743000000     3.398000000
O     7.495000000     3.357000000    -0.923000000
H     7.831000000     3.870000000    -0.188000000
H     6.649000000     3.757000000    -1.127000000
O     5.959000000    -5.088000000     0.298000000
H     6.419000000    -4.860000000    -0.510000000
H     6.528000000    -4.766000000     0.997000000
O     8.017000000     0.338000000     2.148000000
H     7.308000000    -0.305000000     2.159000000
H     8.501000000     0.147000000     1.345000000
O     6.480000000     4.895000000     3.837000000
H     6.209000000     4.005000000     3.609000000
H     6.191000000     5.430000000     3.098000000
O     3.937000000    -2.263000000     4.964000000
H     4.076000000    -1.795000000     5.788000000
H     3.825000000    -1.571000000     4.312000000
O     4.259000000    -2.897000000     0.523000000
H     4.842000000    -2.171000000     0.745000000
H     4.843000000    -3.580000000     0.194000000
O     6.420000000    -3.293000000     5.098000000
H     6.791000000    -2.856000000     5.865000000
H     5.486000000    -3.088000000     5.134000000
