215
-1450.79717
C    -2.032000000     0.144000000     5.058000000
H    -2.702000000    -0.599000000     4.631000000
C    -1.916000000     1.442000000     4.423000000
C    -1.108000000     2.431000000     4.996000000
H    -0.903000000     3.383000000     4.512000000
C    -2.488000000     1.691000000     3.062000000
O    -3.860000000     1.184000000     3.046000000
H    -1.857000000     1.186000000     2.315000000
O    -2.548000000     3.078000000     2.733000000
C    -2.322000000     3.515000000     1.462000000
C    -1.109000000     4.055000000     1.145000000
H    -0.362000000     4.164000000     1.927000000
C    -0.890000000     4.556000000    -0.068000000
O     0.304000000     4.990000000    -0.318000000
C    -1.887000000     4.484000000    -1.135000000
C    -1.556000000     4.843000000    -2.674000000
H    -2.503000000     5.119000000    -3.143000000
C    -0.922000000     3.667000000    -3.386000000
C    -1.679000000     2.726000000    -4.147000000
H    -2.762000000     2.818000000    -4.148000000
H    -0.870000000     5.689000000    -2.600000000
C    -3.118000000     3.949000000    -0.826000000
H    -3.856000000     3.913000000    -1.623000000
C    -3.286000000     3.431000000     0.504000000
C    -4.725000000     2.928000000     0.859000000
H    -5.477000000     3.349000000     0.188000000
H    -4.977000000     3.350000000     1.834000000
C    -4.686000000     1.380000000     0.727000000
C    -4.988000000     0.653000000    -0.451000000
H    -5.178000000     1.242000000    -1.344000000
C    -4.245000000     0.617000000     1.850000000
C    -4.114000000    -0.761000000     1.793000000
H    -3.854000000    -1.437000000     2.604000000
C    -4.355000000    -1.422000000     0.594000000
O    -3.987000000    -2.764000000     0.546000000
C    -2.765000000    -3.145000000    -0.197000000
C    -1.937000000    -4.220000000     0.532000000
C    -0.871000000    -4.792000000    -0.147000000
H    -0.630000000    -4.618000000    -1.192000000
C    -2.055000000    -4.307000000     1.922000000
H    -2.777000000    -3.651000000     2.401000000
O    -3.155000000    -3.587000000    -1.494000000
H    -2.182000000    -2.222000000    -0.335000000
C    -4.832000000    -0.756000000    -0.526000000
C    -5.128000000    -1.431000000    -1.847000000
H    -5.974000000    -0.941000000    -2.334000000
H    -5.491000000    -2.393000000    -1.479000000
C    -3.883000000    -1.592000000    -2.706000000
C    -3.494000000    -0.570000000    -3.541000000
H    -4.203000000     0.253000000    -3.509000000
C    -3.007000000    -2.627000000    -2.462000000
C    -1.773000000    -2.681000000    -3.167000000
H    -1.058000000    -3.440000000    -2.862000000
C    -1.367000000    -1.672000000    -3.988000000
O    -0.149000000    -1.723000000    -4.594000000
C     0.913000000    -0.926000000    -4.075000000
C     2.297000000    -1.642000000    -4.000000000
C     2.388000000    -3.000000000    -3.951000000
H     1.504000000    -3.600000000    -4.147000000
C     3.427000000    -0.841000000    -3.845000000
H     3.434000000     0.238000000    -3.978000000
O     0.922000000     0.271000000    -4.876000000
H     0.823000000    -0.688000000    -3.005000000
C    -2.314000000    -0.637000000    -4.327000000
C    -1.938000000     0.469000000    -5.293000000
H    -2.902000000     0.837000000    -5.652000000
H    -1.561000000     0.078000000    -6.241000000
C    -1.030000000     1.565000000    -4.698000000
C     0.316000000     1.399000000    -4.437000000
C     1.006000000     2.264000000    -3.634000000
H     2.039000000     2.056000000    -3.369000000
C     0.452000000     3.452000000    -3.180000000
O     1.223000000     4.236000000    -2.292000000
C     1.166000000     3.947000000    -0.938000000
H     0.853000000     2.902000000    -0.803000000
C     2.572000000     3.883000000    -0.282000000
C     2.662000000     4.132000000     1.127000000
H     1.759000000     4.425000000     1.655000000
C     3.702000000     3.379000000    -0.945000000
H     3.681000000     3.145000000    -2.006000000
C     4.884000000     3.109000000    -0.252000000
O     5.990000000     2.694000000    -0.855000000
C     4.935000000     3.283000000     1.144000000
H     5.820000000     3.127000000     1.755000000
C     3.760000000     3.669000000     1.875000000
O     3.835000000     3.721000000     3.251000000
C     2.906000000     4.179000000     4.178000000
C     2.110000000     3.359000000     4.918000000
H     2.255000000     2.285000000     4.827000000
C     2.867000000     5.592000000     4.399000000
H     3.353000000     6.348000000     3.787000000
C     1.923000000     6.078000000     5.306000000
H     1.746000000     7.142000000     5.436000000
C     1.101000000     5.236000000     6.072000000
H     0.408000000     5.757000000     6.728000000
C     1.201000000     3.842000000     5.897000000
O     0.424000000     3.045000000     6.689000000
C    -0.438000000     2.117000000     6.153000000
C    -0.495000000     0.843000000     6.741000000
H     0.051000000     0.589000000     7.647000000
C    -1.306000000    -0.161000000     6.238000000
O    -1.206000000    -1.441000000     6.823000000
C    -1.945000000    -2.522000000     6.336000000
C    -1.360000000    -3.295000000     5.298000000
H    -0.425000000    -2.973000000     4.847000000
C    -3.053000000    -3.005000000     7.072000000
H    -3.503000000    -2.441000000     7.885000000
C    -3.594000000    -4.203000000     6.634000000
H    -4.477000000    -4.576000000     7.146000000
C    -3.064000000    -4.918000000     5.554000000
H    -3.493000000    -5.888000000     5.317000000
C    -1.921000000    -4.515000000     4.968000000
O    -1.393000000    -5.385000000     4.011000000
C    -1.245000000    -5.233000000     2.603000000
C    -0.297000000    -6.012000000     1.909000000
H     0.344000000    -6.747000000     2.389000000
C    -0.085000000    -5.686000000     0.563000000
O     1.073000000    -6.226000000     0.021000000
C     1.332000000    -6.341000000    -1.318000000
C     2.366000000    -5.626000000    -1.921000000
H     2.978000000    -5.015000000    -1.263000000
C     0.607000000    -7.223000000    -2.108000000
H    -0.283000000    -7.669000000    -1.671000000
C     0.938000000    -7.377000000    -3.449000000
H     0.327000000    -8.003000000    -4.094000000
C     1.993000000    -6.652000000    -4.018000000
H     2.205000000    -6.711000000    -5.083000000
C     2.752000000    -5.784000000    -3.235000000
O     3.770000000    -5.025000000    -3.796000000
C     3.618000000    -3.696000000    -3.785000000
C     4.722000000    -2.882000000    -3.806000000
H     5.694000000    -3.319000000    -3.594000000
C     4.659000000    -1.501000000    -3.862000000
O     5.883000000    -0.930000000    -4.136000000
C     6.125000000     0.417000000    -3.809000000
C     6.711000000     1.199000000    -4.762000000
H     6.885000000     0.804000000    -5.759000000
C     6.861000000     2.560000000    -4.437000000
H     7.314000000     3.225000000    -5.168000000
C     6.682000000     3.083000000    -3.122000000
H     6.876000000     4.121000000    -2.864000000
C     6.183000000     2.191000000    -2.164000000
C     5.837000000     0.899000000    -2.511000000
H     5.454000000     0.202000000    -1.771000000
C     0.858000000    -0.548000000     2.229000000
H     0.466000000    -0.859000000     3.194000000
C     0.050000000    -0.576000000     1.042000000
H    -0.866000000    -1.157000000     1.115000000
C     0.577000000    -0.052000000    -0.115000000
H     0.015000000    -0.158000000    -1.046000000
C     1.851000000     0.551000000    -0.129000000
H     2.172000000     1.064000000    -1.032000000
C     2.555000000     0.674000000     1.079000000
H     3.476000000     1.240000000     1.191000000
C     2.063000000     0.008000000     2.215000000
C     2.900000000     0.089000000     3.507000000
O     4.123000000     0.398000000     3.476000000
O     2.481000000    -0.636000000     4.385000000
O     3.695000000     0.086000000     6.906000000
H     3.020000000    -0.091000000     6.251000000
H     4.412000000    -0.505000000     6.676000000
O     8.829000000    -1.671000000     4.677000000
H     9.702000000    -1.867000000     4.336000000
H     8.790000000    -0.715000000     4.700000000
O     7.520000000    -2.398000000     0.943000000
H     7.703000000    -3.276000000     1.279000000
H     7.013000000    -1.977000000     1.637000000
O     5.840000000     2.075000000     4.389000000
H     5.363000000     2.897000000     4.505000000
H     5.247000000     1.525000000     3.877000000
O     2.840000000    -6.003000000     4.698000000
H     2.775000000    -6.135000000     3.752000000
H     2.449000000    -5.142000000     4.847000000
O     6.416000000    -0.517000000     2.684000000
H     5.575000000    -0.258000000     3.062000000
H     7.069000000    -0.089000000     3.237000000
O     5.005000000    -3.072000000    -0.333000000
H     4.117000000    -2.713000000    -0.325000000
H     5.562000000    -2.339000000    -0.071000000
O     8.494000000     0.928000000     4.038000000
H     7.639000000     1.345000000     4.141000000
H     8.890000000     1.374000000     3.289000000
O     4.973000000    -4.262000000     5.816000000
H     4.575000000    -3.534000000     5.339000000
H     4.571000000    -5.044000000     5.438000000
O     2.104000000    -2.519000000    -0.664000000
H     1.564000000    -1.783000000    -0.375000000
H     1.819000000    -3.253000000    -0.120000000
O     7.605000000    -4.065000000     4.636000000
H     6.779000000    -4.038000000     5.117000000
H     8.044000000    -3.246000000     4.866000000
O     2.599000000    -4.675000000     1.454000000
H     3.390000000    -5.007000000     1.879000000
H     2.252000000    -5.426000000     0.973000000
O     4.187000000     2.357000000     8.397000000
H     4.851000000     1.889000000     8.903000000
H     4.043000000     1.809000000     7.626000000
O     1.696000000    -2.959000000     7.087000000
H     1.837000000    -2.058000000     7.377000000
H     1.613000000    -2.895000000     6.136000000
O     7.055000000    -2.284000000     7.266000000
H     7.816000000    -1.988000000     6.765000000
H     7.317000000    -2.184000000     8.181000000
O     1.709000000    -0.435000000     8.726000000
H     2.399000000    -0.096000000     8.156000000
H     2.161000000    -0.664000000     9.538000000
O     2.131000000    -3.163000000     4.239000000
H     2.290000000    -3.293000000     3.304000000
H     2.215000000    -2.218000000     4.366000000
O     4.768000000    -2.764000000     8.634000000
H     5.404000000    -2.396000000     8.021000000
H     4.783000000    -3.705000000     8.458000000
O     7.283000000     1.049000000     6.786000000
H     8.050000000     1.422000000     6.352000000
H     6.587000000     1.102000000     6.131000000
