215
-1463.10279
C    -1.236000000    -0.824000000     4.836000000
H    -1.764000000    -1.616000000     4.311000000
C    -1.542000000     0.487000000     4.406000000
C    -0.879000000     1.562000000     4.925000000
H    -1.184000000     2.526000000     4.524000000
C    -2.600000000     0.697000000     3.337000000
O    -3.666000000    -0.307000000     3.398000000
H    -2.097000000     0.416000000     2.400000000
O    -3.080000000     2.044000000     3.347000000
C    -3.059000000     2.663000000     2.147000000
C    -2.087000000     3.608000000     1.869000000
H    -1.253000000     3.853000000     2.522000000
C    -1.965000000     4.223000000     0.643000000
O    -0.871000000     5.007000000     0.334000000
C    -2.914000000     3.856000000    -0.367000000
C    -2.820000000     4.440000000    -1.772000000
H    -3.821000000     4.492000000    -2.205000000
C    -1.918000000     3.576000000    -2.679000000
C    -2.489000000     2.630000000    -3.543000000
H    -3.565000000     2.529000000    -3.658000000
H    -2.398000000     5.445000000    -1.711000000
C    -3.981000000     2.968000000    -0.045000000
H    -4.602000000     2.567000000    -0.842000000
C    -4.058000000     2.390000000     1.239000000
C    -5.197000000     1.423000000     1.506000000
H    -6.083000000     1.475000000     0.869000000
H    -5.540000000     1.445000000     2.542000000
C    -4.682000000    -0.010000000     1.207000000
C    -4.912000000    -0.467000000    -0.091000000
H    -5.412000000     0.182000000    -0.806000000
C    -4.084000000    -0.819000000     2.106000000
C    -3.674000000    -2.110000000     1.757000000
H    -3.159000000    -2.792000000     2.428000000
C    -3.790000000    -2.562000000     0.473000000
O    -3.274000000    -3.773000000     0.112000000
C    -1.950000000    -3.749000000    -0.476000000
C    -0.902000000    -4.680000000     0.142000000
C    -0.079000000    -5.390000000    -0.743000000
H    -0.009000000    -5.171000000    -1.805000000
C    -0.791000000    -4.893000000     1.509000000
H    -1.440000000    -4.329000000     2.174000000
O    -2.205000000    -3.922000000    -1.931000000
H    -1.582000000    -2.714000000    -0.415000000
C    -4.545000000    -1.815000000    -0.448000000
C    -4.698000000    -2.306000000    -1.861000000
H    -5.617000000    -1.838000000    -2.221000000
H    -4.961000000    -3.361000000    -1.959000000
C    -3.501000000    -1.968000000    -2.693000000
C    -3.465000000    -0.748000000    -3.392000000
H    -4.366000000    -0.144000000    -3.462000000
C    -2.331000000    -2.839000000    -2.702000000
C    -1.216000000    -2.508000000    -3.445000000
H    -0.385000000    -3.207000000    -3.478000000
C    -1.228000000    -1.392000000    -4.279000000
O    -0.119000000    -1.052000000    -4.905000000
C     0.705000000    -0.094000000    -4.234000000
C     2.211000000    -0.554000000    -4.187000000
C     2.435000000    -1.905000000    -4.072000000
H     1.614000000    -2.598000000    -4.234000000
C     3.262000000     0.321000000    -3.931000000
H     3.070000000     1.389000000    -3.981000000
O     0.605000000     1.207000000    -4.869000000
H     0.483000000    -0.092000000    -3.157000000
C    -2.324000000    -0.521000000    -4.221000000
C    -2.294000000     0.718000000    -5.134000000
H    -3.336000000     0.972000000    -5.339000000
H    -1.744000000     0.482000000    -6.048000000
C    -1.631000000     1.845000000    -4.354000000
C    -0.291000000     2.103000000    -4.327000000
C     0.257000000     2.991000000    -3.452000000
H     1.335000000     3.033000000    -3.320000000
C    -0.552000000     3.728000000    -2.627000000
O     0.180000000     4.615000000    -1.804000000
C     0.195000000     4.340000000    -0.382000000
H     0.063000000     3.254000000    -0.269000000
C     1.589000000     4.557000000     0.201000000
C     1.763000000     4.612000000     1.633000000
H     0.825000000     4.549000000     2.179000000
C     2.759000000     4.555000000    -0.583000000
H     2.670000000     4.606000000    -1.665000000
C     4.045000000     4.590000000    -0.041000000
O     5.133000000     4.671000000    -0.889000000
C     4.127000000     4.662000000     1.399000000
H     5.139000000     4.723000000     1.792000000
C     3.035000000     4.588000000     2.213000000
O     3.204000000     4.660000000     3.586000000
C     2.218000000     4.739000000     4.471000000
C     1.803000000     3.530000000     5.030000000
H     2.313000000     2.618000000     4.731000000
C     1.725000000     6.003000000     4.968000000
H     2.293000000     6.893000000     4.709000000
C     0.785000000     6.046000000     5.924000000
H     0.440000000     6.940000000     6.437000000
C     0.345000000     4.821000000     6.480000000
H    -0.382000000     4.851000000     7.287000000
C     0.827000000     3.606000000     6.031000000
O     0.456000000     2.466000000     6.646000000
C    -0.091000000     1.389000000     6.019000000
C     0.196000000     0.110000000     6.531000000
H     0.928000000     0.077000000     7.334000000
C    -0.332000000    -1.019000000     5.894000000
O     0.228000000    -2.299000000     6.178000000
C    -0.440000000    -3.404000000     5.672000000
C     0.200000000    -4.179000000     4.734000000
H     1.122000000    -3.922000000     4.219000000
C    -1.658000000    -3.730000000     6.248000000
H    -2.051000000    -3.024000000     6.975000000
C    -2.334000000    -4.864000000     5.846000000
H    -3.248000000    -5.228000000     6.307000000
C    -1.698000000    -5.725000000     4.951000000
H    -2.232000000    -6.582000000     4.546000000
C    -0.444000000    -5.416000000     4.353000000
O     0.121000000    -6.218000000     3.370000000
C     0.064000000    -5.843000000     2.011000000
C     0.924000000    -6.425000000     1.127000000
H     1.648000000    -7.095000000     1.584000000
C     0.885000000    -6.245000000    -0.248000000
O     1.926000000    -6.802000000    -0.992000000
C     2.187000000    -6.413000000    -2.256000000
C     2.990000000    -5.253000000    -2.389000000
H     3.497000000    -4.836000000    -1.522000000
C     1.769000000    -7.137000000    -3.353000000
H     1.354000000    -8.134000000    -3.227000000
C     2.040000000    -6.685000000    -4.622000000
H     1.736000000    -7.303000000    -5.463000000
C     2.823000000    -5.612000000    -4.822000000
H     2.914000000    -5.212000000    -5.829000000
C     3.274000000    -4.849000000    -3.713000000
O     4.106000000    -3.726000000    -3.982000000
C     3.703000000    -2.397000000    -3.807000000
C     4.763000000    -1.510000000    -3.542000000
H     5.745000000    -1.952000000    -3.392000000
C     4.583000000    -0.171000000    -3.637000000
O     5.644000000     0.630000000    -3.608000000
C     5.425000000     2.004000000    -3.478000000
C     5.891000000     2.778000000    -4.583000000
H     6.135000000     2.406000000    -5.575000000
C     6.086000000     4.168000000    -4.439000000
H     6.462000000     4.783000000    -5.252000000
C     5.772000000     4.748000000    -3.168000000
H     5.820000000     5.819000000    -2.987000000
C     5.315000000     3.979000000    -2.107000000
C     5.137000000     2.597000000    -2.255000000
H     4.761000000     2.005000000    -1.425000000
C     1.388000000    -0.160000000     2.436000000
H     1.255000000    -0.504000000     3.459000000
C     0.311000000    -0.340000000     1.537000000
H    -0.612000000    -0.839000000     1.822000000
C     0.365000000     0.072000000     0.192000000
H    -0.559000000    -0.114000000    -0.433000000
C     1.440000000     0.868000000    -0.138000000
H     1.451000000     1.284000000    -1.143000000
C     2.537000000     1.060000000     0.709000000
H     3.299000000     1.679000000     0.242000000
C     2.523000000     0.586000000     2.079000000
C     3.698000000     0.858000000     3.056000000
O     4.699000000     1.366000000     2.613000000
O     3.737000000     0.261000000     4.120000000
O     3.802000000     2.160000000     8.384000000
H     4.126000000     1.424000000     8.903000000
H     4.105000000     1.978000000     7.494000000
O     4.601000000     1.791000000     5.949000000
H     4.228000000     1.242000000     5.259000000
H     5.531000000     1.565000000     5.958000000
O     8.123000000    -0.299000000    -1.668000000
H     7.387000000     0.311000000    -1.615000000
H     8.813000000     0.114000000    -1.149000000
O     7.321000000     5.812000000     3.460000000
H     6.625000000     5.391000000     3.964000000
H     8.071000000     5.223000000     3.548000000
O     6.650000000    -4.646000000     2.565000000
H     7.531000000    -4.596000000     2.193000000
H     6.644000000    -5.468000000     3.056000000
O     7.057000000     2.522000000     2.214000000
H     6.182000000     2.276000000     2.514000000
H     7.437000000     1.707000000     1.886000000
O     5.665000000    -3.656000000     5.677000000
H     5.883000000    -2.838000000     5.231000000
H     4.766000000    -3.531000000     5.981000000
O     6.089000000    -0.900000000     3.978000000
H     6.376000000    -1.025000000     3.074000000
H     5.198000000    -0.558000000     3.902000000
O     7.459000000     1.231000000     4.913000000
H     6.948000000     0.455000000     4.681000000
H     7.847000000     1.518000000     4.087000000
O     5.704000000     0.549000000     0.210000000
H     5.351000000    -0.340000000     0.202000000
H     5.342000000     0.944000000     1.003000000
O     3.055000000    -2.855000000     2.815000000
H     3.423000000    -2.646000000     3.674000000
H     2.282000000    -2.294000000     2.743000000
O     6.332000000     5.146000000     7.804000000
H     6.319000000     4.711000000     6.951000000
H     5.646000000     5.810000000     7.744000000
O     3.582000000    -5.494000000     3.255000000
H     4.537000000    -5.503000000     3.320000000
H     3.366000000    -4.590000000     3.027000000
O     8.651000000    -2.338000000     4.174000000
H     9.590000000    -2.165000000     4.241000000
H     8.261000000    -1.482000000     3.997000000
O     8.484000000    -0.016000000     2.301000000
H     8.455000000    -0.846000000     1.824000000
H     9.272000000     0.419000000     1.975000000
O     8.113000000    -2.121000000     0.469000000
H     7.185000000    -2.033000000     0.686000000
H     8.163000000    -1.899000000    -0.461000000
O     5.530000000     4.453000000     5.246000000
H     4.990000000     4.549000000     4.461000000
H     5.244000000     3.625000000     5.633000000
O     3.379000000    -1.997000000     5.365000000
H     2.987000000    -1.834000000     6.223000000
H     3.380000000    -1.141000000     4.936000000
O     5.493000000    -2.334000000     1.609000000
H     6.017000000    -3.030000000     2.006000000
H     4.594000000    -2.532000000     1.871000000
