215
-1460.00047
C     0.487000000     2.233000000    -4.750000000
H     0.371000000     1.256000000    -5.213000000
C     1.559000000     2.463000000    -3.867000000
C     1.706000000     3.776000000    -3.391000000
H     2.487000000     3.913000000    -2.647000000
C     2.407000000     1.311000000    -3.332000000
O     2.576000000     0.267000000    -4.285000000
H     1.843000000     0.962000000    -2.454000000
O     3.734000000     1.706000000    -2.857000000
C     4.195000000     1.169000000    -1.660000000
C     4.032000000     1.931000000    -0.559000000
H     3.648000000     2.944000000    -0.645000000
C     4.231000000     1.374000000     0.707000000
O     3.865000000     2.162000000     1.778000000
C     4.719000000     0.089000000     0.829000000
C     5.056000000    -0.493000000     2.259000000
H     5.752000000    -1.322000000     2.116000000
C     3.823000000    -1.046000000     3.023000000
C     3.455000000    -2.347000000     2.721000000
H     4.127000000    -2.841000000     2.024000000
H     5.513000000     0.311000000     2.839000000
C     4.922000000    -0.647000000    -0.320000000
H     5.269000000    -1.673000000    -0.226000000
C     4.729000000    -0.152000000    -1.593000000
C     4.795000000    -1.056000000    -2.850000000
H     5.580000000    -1.815000000    -2.819000000
H     5.026000000    -0.444000000    -3.724000000
C     3.465000000    -1.689000000    -3.123000000
C     3.204000000    -2.977000000    -2.554000000
H     3.948000000    -3.524000000    -1.981000000
C     2.458000000    -1.060000000    -3.775000000
C     1.183000000    -1.607000000    -3.970000000
H     0.362000000    -1.091000000    -4.462000000
C     0.994000000    -2.907000000    -3.568000000
O    -0.293000000    -3.346000000    -3.795000000
C    -1.226000000    -3.232000000    -2.760000000
C    -2.645000000    -2.856000000    -3.140000000
C    -3.712000000    -3.242000000    -2.308000000
H    -3.594000000    -3.953000000    -1.494000000
C    -2.864000000    -2.016000000    -4.249000000
H    -2.038000000    -1.724000000    -4.893000000
O    -1.169000000    -4.456000000    -1.991000000
H    -0.927000000    -2.407000000    -2.097000000
C     1.977000000    -3.589000000    -2.824000000
C     1.698000000    -4.924000000    -2.226000000
H     2.606000000    -5.492000000    -2.012000000
H     1.042000000    -5.482000000    -2.899000000
C     0.956000000    -4.758000000    -0.839000000
C     1.740000000    -4.606000000     0.286000000
H     2.804000000    -4.653000000     0.067000000
C    -0.416000000    -4.446000000    -0.820000000
C    -0.985000000    -4.066000000     0.372000000
H    -2.061000000    -3.916000000     0.414000000
C    -0.266000000    -4.020000000     1.543000000
O    -0.987000000    -3.752000000     2.719000000
C    -0.743000000    -2.504000000     3.350000000
C    -2.086000000    -1.959000000     3.865000000
C    -3.228000000    -2.239000000     3.119000000
H    -3.216000000    -2.891000000     2.249000000
C    -2.133000000    -1.145000000     4.995000000
H    -1.238000000    -0.908000000     5.566000000
O     0.274000000    -2.568000000     4.438000000
H    -0.366000000    -1.756000000     2.637000000
C     1.102000000    -4.336000000     1.475000000
C     1.995000000    -4.336000000     2.719000000
H     2.904000000    -4.913000000     2.536000000
H     1.484000000    -4.871000000     3.523000000
C     2.349000000    -2.975000000     3.292000000
C     1.482000000    -2.188000000     4.158000000
C     1.868000000    -0.847000000     4.360000000
H     1.285000000    -0.205000000     5.016000000
C     2.957000000    -0.251000000     3.720000000
O     3.151000000     1.114000000     3.743000000
C     2.704000000     1.841000000     2.558000000
H     2.085000000     1.258000000     1.861000000
C     1.942000000     3.195000000     2.927000000
C     2.100000000     4.338000000     2.223000000
H     2.769000000     4.369000000     1.367000000
C     1.030000000     3.136000000     4.019000000
H     0.734000000     2.205000000     4.495000000
C     0.326000000     4.304000000     4.324000000
O    -0.671000000     4.279000000     5.307000000
C     0.481000000     5.455000000     3.588000000
H    -0.118000000     6.320000000     3.858000000
C     1.337000000     5.495000000     2.513000000
O     1.310000000     6.583000000     1.684000000
C     1.796000000     6.638000000     0.407000000
C     0.977000000     6.450000000    -0.686000000
H    -0.025000000     6.081000000    -0.483000000
C     3.088000000     7.068000000     0.115000000
H     3.717000000     7.222000000     0.988000000
C     3.554000000     7.411000000    -1.149000000
H     4.566000000     7.774000000    -1.307000000
C     2.744000000     7.025000000    -2.216000000
H     3.008000000     7.142000000    -3.264000000
C     1.512000000     6.440000000    -1.989000000
O     0.766000000     6.018000000    -3.050000000
C     0.721000000     4.777000000    -3.635000000
C    -0.370000000     4.528000000    -4.485000000
H    -1.165000000     5.254000000    -4.638000000
C    -0.413000000     3.255000000    -5.115000000
O    -1.356000000     3.030000000    -6.101000000
C    -1.828000000     1.793000000    -6.490000000
C    -2.995000000     1.298000000    -5.883000000
H    -3.462000000     1.843000000    -5.066000000
C    -1.123000000     1.090000000    -7.471000000
H    -0.242000000     1.501000000    -7.958000000
C    -1.651000000    -0.100000000    -7.936000000
H    -1.252000000    -0.566000000    -8.834000000
C    -2.695000000    -0.694000000    -7.234000000
H    -3.101000000    -1.631000000    -7.607000000
C    -3.409000000    -0.002000000    -6.209000000
O    -4.414000000    -0.587000000    -5.465000000
C    -4.154000000    -1.491000000    -4.469000000
C    -5.248000000    -1.912000000    -3.702000000
H    -6.228000000    -1.514000000    -3.952000000
C    -5.017000000    -2.714000000    -2.578000000
O    -6.075000000    -3.094000000    -1.842000000
C    -6.057000000    -3.348000000    -0.465000000
C    -5.633000000    -2.331000000     0.377000000
H    -5.194000000    -1.381000000     0.087000000
C    -6.506000000    -4.535000000     0.026000000
H    -6.873000000    -5.333000000    -0.615000000
C    -6.581000000    -4.815000000     1.399000000
H    -6.938000000    -5.802000000     1.682000000
C    -6.089000000    -3.886000000     2.222000000
H    -6.165000000    -4.026000000     3.297000000
C    -5.678000000    -2.612000000     1.741000000
O    -5.509000000    -1.636000000     2.634000000
C    -4.432000000    -1.507000000     3.429000000
C    -4.465000000    -0.633000000     4.514000000
H    -5.329000000    -0.025000000     4.772000000
C    -3.329000000    -0.542000000     5.362000000
O    -3.276000000     0.460000000     6.248000000
C    -2.207000000     1.255000000     6.600000000
C    -1.541000000     1.027000000     7.836000000
H    -1.813000000     0.237000000     8.532000000
C    -0.515000000     1.990000000     8.226000000
H    -0.193000000     1.907000000     9.260000000
C    -0.254000000     3.096000000     7.410000000
H     0.381000000     3.817000000     7.918000000
C    -0.878000000     3.250000000     6.173000000
C    -1.835000000     2.339000000     5.729000000
H    -2.315000000     2.509000000     4.768000000
C    -2.062000000     0.281000000    -1.184000000
H    -2.839000000    -0.428000000    -1.460000000
C    -0.944000000    -0.211000000    -0.520000000
H    -0.735000000    -1.238000000    -0.232000000
C     0.043000000     0.724000000    -0.202000000
H     0.899000000     0.467000000     0.351000000
C    -0.070000000     2.105000000    -0.441000000
H     0.697000000     2.790000000    -0.088000000
C    -1.214000000     2.514000000    -1.163000000
H    -1.254000000     3.571000000    -1.417000000
C    -2.204000000     1.643000000    -1.501000000
C    -3.450000000     2.112000000    -2.234000000
O    -3.583000000     3.274000000    -2.598000000
O    -4.383000000     1.359000000    -2.361000000
O    -3.436000000     5.370000000     1.571000000
H    -3.349000000     5.179000000     0.637000000
H    -2.638000000     5.016000000     1.963000000
O    -9.318000000     5.534000000    -1.919000000
H    -8.871000000     4.780000000    -1.534000000
H    -8.650000000     6.219000000    -1.951000000
O    -8.733000000     1.065000000     0.710000000
H    -8.852000000     2.009000000     0.818000000
H    -7.855000000     0.975000000     0.339000000
O    -3.510000000     5.915000000    -6.350000000
H    -3.732000000     5.552000000    -5.492000000
H    -3.243000000     6.816000000    -6.166000000
O    -3.480000000     7.649000000    -2.935000000
H    -2.624000000     7.710000000    -3.358000000
H    -4.039000000     8.241000000    -3.438000000
O    -2.120000000     2.188000000     1.898000000
H    -3.061000000     2.013000000     1.885000000
H    -1.824000000     1.975000000     1.014000000
O    -3.344000000     5.563000000    -1.256000000
H    -3.323000000     4.743000000    -1.750000000
H    -3.676000000     6.210000000    -1.878000000
O    -9.192000000     4.479000000    -4.889000000
H    -9.019000000     4.015000000    -4.070000000
H   -10.137000000     4.631000000    -4.883000000
O    -4.748000000     1.328000000     1.802000000
H    -4.595000000     0.416000000     2.047000000
H    -5.410000000     1.635000000     2.422000000
O    -6.136000000     1.109000000    -0.478000000
H    -5.585000000     1.349000000     0.267000000
H    -5.545000000     1.132000000    -1.230000000
O    -6.706000000     4.488000000    -6.362000000
H    -7.503000000     4.628000000    -5.850000000
H    -5.998000000     4.535000000    -5.719000000
O    -7.242000000     4.700000000     2.340000000
H    -6.734000000     5.116000000     1.644000000
H    -6.873000000     5.052000000     3.149000000
O    -8.132000000     2.821000000    -3.010000000
H    -7.422000000     2.352000000    -3.448000000
H    -7.741000000     3.144000000    -2.199000000
O    -7.053000000     3.786000000    -0.814000000
H    -6.484000000     3.019000000    -0.874000000
H    -6.572000000     4.398000000    -0.257000000
O    -5.171000000     4.745000000    -4.259000000
H    -5.570000000     5.168000000    -3.498000000
H    -4.571000000     4.099000000    -3.886000000
O    -5.910000000     6.134000000     0.300000000
H    -4.978000000     5.923000000     0.353000000
H    -5.967000000     6.793000000    -0.392000000
O    -8.752000000    -0.273000000    -4.840000000
H    -8.537000000    -1.195000000    -4.698000000
H    -7.984000000     0.203000000    -4.524000000
O    -2.732000000     8.443000000    -0.036000000
H    -2.396000000     9.101000000    -0.645000000
H    -2.770000000     7.637000000    -0.551000000
O    -6.430000000     1.171000000    -4.156000000
H    -5.948000000     0.655000000    -4.803000000
H    -5.789000000     1.350000000    -3.468000000
