215
-1442.04685
C    -3.208000000    -1.902000000     4.394000000
H    -3.870000000    -2.508000000     3.781000000
C    -2.796000000    -0.636000000     4.061000000
C    -1.864000000     0.052000000     4.835000000
H    -1.598000000     1.037000000     4.459000000
C    -3.457000000     0.022000000     2.840000000
O    -4.630000000    -0.799000000     2.341000000
H    -2.669000000     0.044000000     2.073000000
O    -3.913000000     1.266000000     3.045000000
C    -3.678000000     2.234000000     2.091000000
C    -2.571000000     2.949000000     2.255000000
H    -2.132000000     2.832000000     3.243000000
C    -2.004000000     3.728000000     1.209000000
O    -0.833000000     4.419000000     1.369000000
C    -2.796000000     3.856000000     0.072000000
C    -2.401000000     4.864000000    -1.001000000
H    -3.316000000     5.074000000    -1.558000000
C    -1.378000000     4.245000000    -1.955000000
C    -1.741000000     3.588000000    -3.096000000
H    -2.808000000     3.544000000    -3.304000000
H    -2.162000000     5.859000000    -0.620000000
C    -3.959000000     3.071000000    -0.130000000
H    -4.552000000     3.093000000    -1.041000000
C    -4.394000000     2.227000000     0.862000000
C    -5.511000000     1.265000000     0.574000000
H    -6.105000000     1.649000000    -0.258000000
H    -6.185000000     1.106000000     1.418000000
C    -4.984000000    -0.104000000     0.091000000
C    -4.862000000    -0.387000000    -1.303000000
H    -5.074000000     0.293000000    -2.123000000
C    -4.623000000    -1.087000000     0.960000000
C    -4.116000000    -2.327000000     0.502000000
H    -3.777000000    -2.958000000     1.319000000
C    -3.943000000    -2.572000000    -0.786000000
O    -3.104000000    -3.568000000    -1.121000000
C    -1.704000000    -3.251000000    -1.448000000
C    -0.739000000    -4.230000000    -0.831000000
C     0.482000000    -4.429000000    -1.442000000
H     0.644000000    -3.890000000    -2.373000000
C    -0.973000000    -4.671000000     0.442000000
H    -1.906000000    -4.425000000     0.943000000
O    -1.712000000    -3.186000000    -2.911000000
H    -1.527000000    -2.234000000    -1.066000000
C    -4.322000000    -1.602000000    -1.724000000
C    -4.121000000    -1.711000000    -3.194000000
H    -4.889000000    -1.244000000    -3.815000000
H    -4.059000000    -2.779000000    -3.418000000
C    -2.789000000    -1.139000000    -3.580000000
C    -2.615000000     0.130000000    -4.087000000
H    -3.426000000     0.804000000    -4.353000000
C    -1.586000000    -1.914000000    -3.420000000
C    -0.365000000    -1.568000000    -4.027000000
H     0.495000000    -2.222000000    -3.906000000
C    -0.184000000    -0.294000000    -4.496000000
O     1.084000000     0.127000000    -4.863000000
C     1.716000000     0.991000000    -3.919000000
C     3.149000000     0.456000000    -3.734000000
C     3.510000000    -0.852000000    -4.029000000
H     2.765000000    -1.563000000    -4.377000000
C     4.149000000     1.290000000    -3.187000000
H     3.966000000     2.320000000    -2.888000000
O     1.514000000     2.339000000    -4.221000000
H     1.202000000     0.843000000    -2.958000000
C    -1.363000000     0.562000000    -4.498000000
C    -1.197000000     2.019000000    -4.965000000
H    -2.102000000     2.345000000    -5.482000000
H    -0.451000000     2.040000000    -5.763000000
C    -0.800000000     3.007000000    -3.896000000
C     0.573000000     3.147000000    -3.634000000
C     0.964000000     4.081000000    -2.674000000
H     2.041000000     4.133000000    -2.531000000
C    -0.012000000     4.519000000    -1.698000000
O     0.416000000     5.033000000    -0.526000000
C     0.286000000     4.059000000     0.553000000
H     0.094000000     3.013000000     0.272000000
C     1.596000000     3.970000000     1.376000000
C     1.502000000     3.434000000     2.633000000
H     0.548000000     3.133000000     3.058000000
C     2.904000000     4.204000000     0.795000000
H     2.949000000     4.543000000    -0.237000000
C     4.084000000     4.014000000     1.554000000
O     5.359000000     4.153000000     1.079000000
C     3.917000000     3.629000000     2.883000000
H     4.754000000     3.346000000     3.516000000
C     2.664000000     3.294000000     3.361000000
O     2.612000000     2.732000000     4.576000000
C     1.428000000     2.682000000     5.380000000
C     0.953000000     1.463000000     5.817000000
H     1.473000000     0.532000000     5.607000000
C     0.726000000     3.858000000     5.700000000
H     1.132000000     4.817000000     5.389000000
C    -0.347000000     3.853000000     6.604000000
H    -0.817000000     4.791000000     6.889000000
C    -0.737000000     2.594000000     7.033000000
H    -1.564000000     2.538000000     7.738000000
C    -0.160000000     1.422000000     6.671000000
O    -0.669000000     0.209000000     6.946000000
C    -1.488000000    -0.478000000     6.073000000
C    -1.855000000    -1.771000000     6.362000000
H    -1.585000000    -2.256000000     7.296000000
C    -2.721000000    -2.476000000     5.558000000
O    -2.903000000    -3.835000000     5.866000000
C    -2.639000000    -4.782000000     4.948000000
C    -1.455000000    -4.704000000     4.135000000
H    -0.622000000    -4.056000000     4.396000000
C    -3.629000000    -5.747000000     4.705000000
H    -4.543000000    -5.880000000     5.277000000
C    -3.452000000    -6.631000000     3.629000000
H    -4.142000000    -7.452000000     3.447000000
C    -2.254000000    -6.546000000     2.843000000
H    -2.086000000    -7.261000000     2.042000000
C    -1.312000000    -5.584000000     3.104000000
O    -0.133000000    -5.678000000     2.466000000
C     0.040000000    -5.322000000     1.150000000
C     1.130000000    -5.759000000     0.500000000
H     1.910000000    -6.262000000     1.067000000
C     1.364000000    -5.303000000    -0.821000000
O     2.601000000    -5.481000000    -1.365000000
C     2.938000000    -5.157000000    -2.636000000
C     3.817000000    -4.132000000    -2.772000000
H     4.132000000    -3.540000000    -1.917000000
C     2.666000000    -5.922000000    -3.739000000
H     1.953000000    -6.726000000    -3.573000000
C     3.235000000    -5.663000000    -5.026000000
H     3.173000000    -6.380000000    -5.841000000
C     4.021000000    -4.521000000    -5.107000000
H     4.329000000    -4.173000000    -6.090000000
C     4.288000000    -3.705000000    -4.006000000
O     5.190000000    -2.608000000    -4.122000000
C     4.809000000    -1.312000000    -3.842000000
C     5.820000000    -0.441000000    -3.501000000
H     6.878000000    -0.691000000    -3.496000000
C     5.468000000     0.828000000    -3.071000000
O     6.570000000     1.640000000    -2.759000000
C     6.334000000     2.900000000    -2.170000000
C     6.363000000     4.039000000    -2.974000000
H     6.588000000     4.009000000    -4.037000000
C     6.234000000     5.277000000    -2.337000000
H     6.212000000     6.227000000    -2.866000000
C     5.920000000     5.304000000    -0.982000000
H     5.935000000     6.258000000    -0.461000000
C     5.585000000     4.131000000    -0.289000000
C     5.919000000     2.939000000    -0.855000000
H     5.834000000     1.976000000    -0.358000000
C     0.870000000    -0.707000000     2.127000000
H     0.674000000    -1.233000000     3.058000000
C    -0.108000000    -0.656000000     1.143000000
H    -0.993000000    -1.287000000     1.172000000
C     0.201000000     0.188000000     0.000000000
H    -0.547000000     0.195000000    -0.812000000
C     1.429000000     0.800000000    -0.120000000
H     1.740000000     1.340000000    -1.011000000
C     2.392000000     0.695000000     0.871000000
H     3.339000000     1.202000000     0.705000000
C     2.178000000    -0.121000000     1.962000000
C     3.288000000    -0.332000000     2.992000000
O     4.467000000    -0.033000000     2.842000000
O     3.021000000    -1.037000000     3.958000000
O     5.828000000    -1.684000000     4.655000000
H     5.148000000    -2.357000000     4.644000000
H     5.462000000    -0.965000000     4.140000000
O     4.971000000    -4.349000000     5.770000000
H     5.128000000    -4.343000000     6.714000000
H     4.024000000    -4.466000000     5.685000000
O     7.377000000    -5.033000000     5.298000000
H     7.954000000    -4.287000000     5.463000000
H     6.495000000    -4.689000000     5.440000000
O     9.168000000     1.043000000     3.666000000
H     8.907000000     0.356000000     4.279000000
H     8.487000000     1.711000000     3.752000000
O     9.065000000    -0.984000000     1.230000000
H     8.383000000    -0.454000000     1.644000000
H     8.983000000    -0.792000000     0.296000000
O     4.168000000    -0.316000000     6.404000000
H     3.710000000    -0.351000000     5.564000000
H     4.719000000    -1.098000000     6.408000000
O     2.714000000    -6.091000000     3.684000000
H     2.345000000    -5.259000000     3.982000000
H     1.994000000    -6.716000000     3.767000000
O     1.401000000    -3.247000000     7.207000000
H     1.077000000    -2.419000000     6.853000000
H     1.350000000    -3.138000000     8.157000000
O     4.606000000    -5.014000000     1.460000000
H     4.091000000    -5.514000000     2.094000000
H     4.057000000    -4.259000000     1.248000000
O     7.757000000    -3.565000000     1.666000000
H     7.099000000    -3.492000000     0.975000000
H     7.964000000    -2.659000000     1.895000000
O     5.460000000     3.054000000     5.919000000
H     5.873000000     2.437000000     6.524000000
H     4.718000000     2.571000000     5.555000000
O     6.857000000     0.594000000     1.947000000
H     7.182000000     1.426000000     2.292000000
H     6.048000000     0.434000000     2.434000000
O     5.751000000    -1.913000000     0.765000000
H     5.766000000    -1.044000000     1.166000000
H     4.844000000    -2.204000000     0.859000000
O     2.165000000    -3.381000000     4.429000000
H     2.141000000    -3.408000000     5.386000000
H     2.554000000    -2.531000000     4.224000000
O     7.435000000     3.012000000     3.926000000
H     6.670000000     2.933000000     4.496000000
H     7.721000000     3.919000000     4.034000000
O     7.475000000    -2.358000000    -1.432000000
H     7.885000000    -1.497000000    -1.513000000
H     6.836000000    -2.253000000    -0.727000000
O     2.418000000     0.023000000     8.615000000
H     2.929000000    -0.122000000     7.819000000
H     2.280000000     0.970000000     8.642000000
O     2.970000000    -2.813000000     0.798000000
H     2.291000000    -2.792000000     1.471000000
H     2.777000000    -2.061000000     0.238000000
O     8.104000000    -0.618000000     5.832000000
H     7.862000000    -0.032000000     6.550000000
H     7.297000000    -1.091000000     5.627000000
