215
-1427.91986
C    -2.387000000    -0.976000000     4.807000000
H    -3.261000000    -1.586000000     4.591000000
C    -2.106000000     0.246000000     4.238000000
C    -1.054000000     1.000000000     4.704000000
H    -0.886000000     1.985000000     4.276000000
C    -2.901000000     0.712000000     3.045000000
O    -4.217000000     0.072000000     2.981000000
H    -2.367000000     0.460000000     2.116000000
O    -3.257000000     2.115000000     3.030000000
C    -3.211000000     2.786000000     1.813000000
C    -2.066000000     3.620000000     1.623000000
H    -1.256000000     3.536000000     2.343000000
C    -1.822000000     4.079000000     0.348000000
O    -0.642000000     4.693000000     0.189000000
C    -2.717000000     3.929000000    -0.723000000
C    -2.493000000     4.606000000    -2.070000000
H    -3.393000000     4.665000000    -2.685000000
C    -1.603000000     3.775000000    -2.970000000
C    -2.067000000     2.750000000    -3.788000000
H    -3.147000000     2.670000000    -3.882000000
H    -2.207000000     5.634000000    -1.835000000
C    -3.832000000     3.188000000    -0.480000000
H    -4.506000000     3.059000000    -1.323000000
C    -4.081000000     2.538000000     0.738000000
C    -5.358000000     1.630000000     0.893000000
H    -6.160000000     1.866000000     0.191000000
H    -5.762000000     1.794000000     1.895000000
C    -4.943000000     0.182000000     0.694000000
C    -4.993000000    -0.405000000    -0.590000000
H    -5.424000000     0.157000000    -1.415000000
C    -4.430000000    -0.534000000     1.774000000
C    -4.002000000    -1.833000000     1.631000000
H    -3.617000000    -2.411000000     2.467000000
C    -4.039000000    -2.448000000     0.368000000
O    -3.386000000    -3.622000000     0.180000000
C    -2.031000000    -3.492000000    -0.294000000
C    -1.086000000    -4.536000000     0.422000000
C     0.162000000    -4.743000000    -0.080000000
H     0.373000000    -4.092000000    -0.924000000
C    -1.496000000    -5.189000000     1.564000000
H    -2.450000000    -5.014000000     2.054000000
O    -2.083000000    -3.828000000    -1.708000000
H    -1.583000000    -2.496000000    -0.163000000
C    -4.543000000    -1.711000000    -0.757000000
C    -4.531000000    -2.273000000    -2.194000000
H    -5.332000000    -1.819000000    -2.782000000
H    -4.723000000    -3.348000000    -2.207000000
C    -3.252000000    -1.970000000    -2.894000000
C    -3.175000000    -0.859000000    -3.723000000
H    -4.086000000    -0.336000000    -4.001000000
C    -2.142000000    -2.750000000    -2.644000000
C    -0.969000000    -2.519000000    -3.297000000
H    -0.120000000    -3.193000000    -3.214000000
C    -0.790000000    -1.345000000    -4.084000000
O     0.445000000    -1.130000000    -4.575000000
C     1.244000000    -0.036000000    -4.025000000
C     2.751000000    -0.463000000    -4.029000000
C     3.068000000    -1.805000000    -3.894000000
H     2.354000000    -2.624000000    -3.922000000
C     3.705000000     0.525000000    -3.830000000
H     3.504000000     1.594000000    -3.836000000
O     0.992000000     1.078000000    -4.808000000
H     0.944000000     0.107000000    -2.976000000
C    -1.887000000    -0.509000000    -4.293000000
C    -1.778000000     0.696000000    -5.258000000
H    -2.762000000     0.967000000    -5.646000000
H    -1.154000000     0.418000000    -6.109000000
C    -1.229000000     1.908000000    -4.533000000
C     0.115000000     1.974000000    -4.316000000
C     0.660000000     3.053000000    -3.570000000
H     1.721000000     3.180000000    -3.375000000
C    -0.202000000     3.892000000    -2.895000000
O     0.262000000     4.818000000    -1.991000000
C     0.373000000     4.245000000    -0.666000000
H     0.177000000     3.163000000    -0.638000000
C     1.730000000     4.502000000    -0.005000000
C     1.900000000     4.322000000     1.296000000
H     1.043000000     4.101000000     1.927000000
C     2.829000000     4.951000000    -0.778000000
H     2.795000000     5.044000000    -1.860000000
C     4.066000000     5.030000000    -0.223000000
O     5.130000000     5.335000000    -1.027000000
C     4.291000000     4.741000000     1.119000000
H     5.271000000     4.840000000     1.578000000
C     3.199000000     4.376000000     1.892000000
O     3.367000000     4.030000000     3.209000000
C     2.502000000     3.952000000     4.207000000
C     2.189000000     2.763000000     4.681000000
H     2.825000000     1.943000000     4.361000000
C     1.788000000     5.032000000     4.617000000
H     1.980000000     5.982000000     4.124000000
C     0.779000000     4.847000000     5.675000000
H     0.335000000     5.722000000     6.142000000
C     0.493000000     3.645000000     6.228000000
H    -0.329000000     3.607000000     6.937000000
C     1.171000000     2.563000000     5.625000000
O     0.870000000     1.211000000     6.018000000
C    -0.164000000     0.500000000     5.569000000
C    -0.402000000    -0.726000000     6.139000000
H     0.235000000    -1.179000000     6.894000000
C    -1.458000000    -1.465000000     5.774000000
O    -1.750000000    -2.572000000     6.469000000
C    -2.044000000    -3.870000000     5.959000000
C    -1.182000000    -4.542000000     5.106000000
H    -0.264000000    -4.084000000     4.746000000
C    -3.167000000    -4.555000000     6.461000000
H    -3.796000000    -4.085000000     7.213000000
C    -3.446000000    -5.842000000     5.995000000
H    -4.254000000    -6.434000000     6.416000000
C    -2.546000000    -6.454000000     5.073000000
H    -2.785000000    -7.428000000     4.655000000
C    -1.549000000    -5.765000000     4.495000000
O    -0.718000000    -6.362000000     3.605000000
C    -0.528000000    -5.919000000     2.284000000
C     0.715000000    -6.089000000     1.800000000
H     1.510000000    -6.576000000     2.360000000
C     1.109000000    -5.508000000     0.591000000
O     2.418000000    -5.532000000     0.190000000
C     2.830000000    -5.504000000    -1.167000000
C     3.721000000    -4.509000000    -1.614000000
H     4.190000000    -3.804000000    -0.933000000
C     2.304000000    -6.473000000    -2.135000000
H     1.661000000    -7.266000000    -1.760000000
C     2.776000000    -6.410000000    -3.435000000
H     2.417000000    -7.158000000    -4.138000000
C     3.519000000    -5.341000000    -3.841000000
H     3.772000000    -5.220000000    -4.891000000
C     4.008000000    -4.413000000    -2.939000000
O     4.801000000    -3.459000000    -3.391000000
C     4.386000000    -2.133000000    -3.506000000
C     5.348000000    -1.144000000    -3.328000000
H     6.392000000    -1.319000000    -3.081000000
C     5.001000000     0.176000000    -3.477000000
O     5.942000000     1.213000000    -3.337000000
C     5.713000000     2.600000000    -3.340000000
C     5.666000000     3.301000000    -4.544000000
H     5.749000000     2.810000000    -5.510000000
C     5.417000000     4.691000000    -4.549000000
H     5.309000000     5.202000000    -5.503000000
C     5.367000000     5.400000000    -3.350000000
H     5.231000000     6.478000000    -3.351000000
C     5.393000000     4.688000000    -2.158000000
C     5.594000000     3.257000000    -2.135000000
H     5.528000000     2.825000000    -1.139000000
C     1.268000000    -0.761000000     2.243000000
H     1.102000000    -1.235000000     3.208000000
C     0.215000000    -0.571000000     1.349000000
H    -0.802000000    -0.936000000     1.463000000
C     0.439000000     0.070000000     0.121000000
H    -0.292000000     0.331000000    -0.639000000
C     1.734000000     0.515000000    -0.234000000
H     2.015000000     1.036000000    -1.146000000
C     2.753000000     0.375000000     0.690000000
H     3.705000000     0.868000000     0.510000000
C     2.573000000    -0.270000000     1.914000000
C     3.745000000    -0.500000000     2.838000000
O     4.619000000     0.296000000     2.910000000
O     3.748000000    -1.423000000     3.603000000
O     2.964000000    -0.376000000     8.799000000
H     3.003000000    -0.422000000     7.843000000
H     3.459000000     0.413000000     9.021000000
O     6.261000000    -4.874000000     2.149000000
H     7.146000000    -4.911000000     2.511000000
H     6.070000000    -3.939000000     2.077000000
O     6.136000000    -2.489000000     4.908000000
H     6.721000000    -2.684000000     4.175000000
H     5.341000000    -2.152000000     4.497000000
O     6.015000000    -3.170000000     7.444000000
H     6.517000000    -3.974000000     7.577000000
H     6.137000000    -2.963000000     6.517000000
O     2.091000000    -3.252000000     7.043000000
H     2.325000000    -3.506000000     6.151000000
H     2.766000000    -2.624000000     7.299000000
O     5.540000000     0.283000000     7.138000000
H     5.215000000     1.052000000     6.671000000
H     5.194000000    -0.461000000     6.645000000
O     4.056000000    -6.178000000     3.081000000
H     4.543000000    -6.720000000     3.703000000
H     4.729000000    -5.684000000     2.614000000
O     5.759000000     1.854000000     4.659000000
H     5.274000000     1.700000000     3.848000000
H     6.448000000     1.188000000     4.655000000
O     3.381000000    -6.192000000     6.421000000
H     3.260000000    -5.449000000     5.830000000
H     4.331000000    -6.277000000     6.507000000
O     8.503000000    -1.088000000     6.972000000
H     8.857000000    -0.338000000     7.450000000
H     7.610000000    -0.829000000     6.745000000
O     7.067000000    -3.158000000    -0.762000000
H     7.690000000    -2.535000000    -0.386000000
H     7.615000000    -3.852000000    -1.129000000
O     7.933000000     2.758000000     0.013000000
H     7.553000000     1.985000000     0.432000000
H     8.239000000     3.298000000     0.742000000
O     7.010000000     0.685000000     1.714000000
H     7.550000000     0.895000000     2.475000000
H     6.117000000     0.649000000     2.057000000
O     6.147000000    -2.253000000     1.964000000
H     5.844000000    -2.042000000     1.081000000
H     5.827000000    -1.530000000     2.505000000
O     2.821000000    -0.647000000     6.060000000
H     2.225000000     0.099000000     6.001000000
H     3.016000000    -0.870000000     5.149000000
O     8.707000000     1.111000000     3.674000000
H     8.995000000     0.235000000     3.931000000
H     9.297000000     1.704000000     4.141000000
O     8.834000000    -1.258000000     0.123000000
H     9.513000000    -0.642000000     0.399000000
H     8.072000000    -1.027000000     0.655000000
O     6.320000000     4.262000000     6.001000000
H     6.624000000     4.805000000     5.273000000
H     6.131000000     3.413000000     5.603000000
O     2.942000000    -3.966000000     4.529000000
H     3.095000000    -4.752000000     4.004000000
H     3.172000000    -3.242000000     3.947000000
