215
-1482.24171
C    -2.572000000    -1.778000000     4.500000000
H    -3.000000000    -2.463000000     3.773000000
C    -2.619000000    -0.408000000     4.237000000
C    -1.876000000     0.440000000     5.029000000
H    -1.716000000     1.501000000     4.851000000
C    -3.166000000     0.076000000     2.927000000
O    -4.425000000    -0.668000000     2.568000000
H    -2.495000000    -0.038000000     2.062000000
O    -3.482000000     1.511000000     3.015000000
C    -3.299000000     2.285000000     1.893000000
C    -2.230000000     3.187000000     1.905000000
H    -1.525000000     3.245000000     2.731000000
C    -2.084000000     4.108000000     0.867000000
O    -0.910000000     4.791000000     0.924000000
C    -2.888000000     4.014000000    -0.228000000
C    -2.651000000     4.906000000    -1.442000000
H    -3.610000000     5.019000000    -1.952000000
C    -1.556000000     4.209000000    -2.348000000
C    -1.958000000     3.390000000    -3.414000000
H    -2.999000000     3.348000000    -3.724000000
H    -2.218000000     5.866000000    -1.152000000
C    -3.975000000     3.114000000    -0.284000000
H    -4.656000000     3.056000000    -1.130000000
C    -4.206000000     2.262000000     0.822000000
C    -5.426000000     1.314000000     0.822000000
H    -6.209000000     1.655000000     0.142000000
H    -5.844000000     1.127000000     1.813000000
C    -4.944000000    -0.081000000     0.344000000
C    -4.911000000    -0.347000000    -1.003000000
H    -5.212000000     0.424000000    -1.707000000
C    -4.490000000    -1.066000000     1.243000000
C    -4.049000000    -2.319000000     0.795000000
H    -3.824000000    -3.124000000     1.491000000
C    -4.032000000    -2.557000000    -0.556000000
O    -3.376000000    -3.672000000    -0.991000000
C    -1.941000000    -3.475000000    -1.341000000
C    -1.043000000    -4.439000000    -0.647000000
C     0.300000000    -4.601000000    -1.051000000
H     0.669000000    -4.030000000    -1.900000000
C    -1.478000000    -5.127000000     0.539000000
H    -2.518000000    -4.960000000     0.807000000
O    -1.731000000    -3.563000000    -2.766000000
H    -1.692000000    -2.462000000    -0.992000000
C    -4.448000000    -1.570000000    -1.470000000
C    -4.270000000    -1.982000000    -2.920000000
H    -5.077000000    -1.520000000    -3.493000000
H    -4.261000000    -3.063000000    -3.075000000
C    -2.914000000    -1.498000000    -3.442000000
C    -2.878000000    -0.255000000    -4.107000000
H    -3.755000000     0.387000000    -4.110000000
C    -1.777000000    -2.311000000    -3.397000000
C    -0.566000000    -1.866000000    -3.832000000
H     0.401000000    -2.362000000    -3.829000000
C    -0.546000000    -0.569000000    -4.344000000
O     0.772000000    -0.190000000    -4.650000000
C     1.497000000     0.739000000    -3.885000000
C     2.957000000     0.330000000    -3.721000000
C     3.341000000    -0.989000000    -3.897000000
H     2.655000000    -1.724000000    -4.310000000
C     3.972000000     1.261000000    -3.411000000
H     3.768000000     2.327000000    -3.360000000
O     1.280000000     2.030000000    -4.456000000
H     1.084000000     0.823000000    -2.868000000
C    -1.661000000     0.198000000    -4.590000000
C    -1.588000000     1.599000000    -5.157000000
H    -2.515000000     1.880000000    -5.660000000
H    -0.878000000     1.555000000    -5.985000000
C    -1.037000000     2.710000000    -4.214000000
C     0.309000000     2.918000000    -3.922000000
C     0.756000000     3.614000000    -2.793000000
H     1.803000000     3.668000000    -2.506000000
C    -0.176000000     4.313000000    -2.097000000
O     0.228000000     5.025000000    -1.022000000
C     0.142000000     4.307000000     0.157000000
H    -0.054000000     3.258000000    -0.110000000
C     1.459000000     4.277000000     0.905000000
C     1.539000000     3.438000000     2.004000000
H     0.679000000     2.920000000     2.423000000
C     2.667000000     4.693000000     0.333000000
H     2.615000000     5.381000000    -0.506000000
C     3.899000000     4.497000000     0.956000000
O     5.083000000     4.910000000     0.448000000
C     3.912000000     3.757000000     2.175000000
H     4.853000000     3.483000000     2.645000000
C     2.726000000     3.292000000     2.664000000
O     2.801000000     2.535000000     3.803000000
C     1.948000000     2.853000000     4.784000000
C     1.212000000     1.783000000     5.218000000
H     1.288000000     0.823000000     4.714000000
C     2.084000000     4.036000000     5.489000000
H     2.751000000     4.841000000     5.190000000
C     1.322000000     4.196000000     6.666000000
H     1.514000000     5.078000000     7.272000000
C     0.394000000     3.190000000     7.039000000
H    -0.128000000     3.238000000     7.991000000
C     0.347000000     1.949000000     6.319000000
O    -0.421000000     0.914000000     6.844000000
C    -1.142000000    -0.007000000     6.129000000
C    -1.344000000    -1.344000000     6.557000000
H    -0.792000000    -1.845000000     7.348000000
C    -1.921000000    -2.247000000     5.659000000
O    -1.912000000    -3.581000000     5.978000000
C    -2.273000000    -4.632000000     5.158000000
C    -1.428000000    -4.982000000     4.078000000
H    -0.520000000    -4.421000000     3.873000000
C    -3.433000000    -5.352000000     5.383000000
H    -4.068000000    -4.952000000     6.169000000
C    -3.722000000    -6.558000000     4.691000000
H    -4.579000000    -7.162000000     4.977000000
C    -2.827000000    -6.970000000     3.710000000
H    -3.045000000    -7.873000000     3.146000000
C    -1.775000000    -6.159000000     3.355000000
O    -0.904000000    -6.606000000     2.416000000
C    -0.624000000    -5.942000000     1.332000000
C     0.758000000    -5.938000000     0.911000000
H     1.437000000    -6.564000000     1.483000000
C     1.160000000    -5.337000000    -0.312000000
O     2.486000000    -5.473000000    -0.714000000
C     2.774000000    -5.145000000    -2.042000000
C     3.596000000    -4.029000000    -2.338000000
H     3.938000000    -3.527000000    -1.437000000
C     2.599000000    -6.065000000    -3.054000000
H     2.110000000    -7.023000000    -2.895000000
C     3.067000000    -5.808000000    -4.385000000
H     2.765000000    -6.551000000    -5.119000000
C     3.781000000    -4.670000000    -4.631000000
H     4.205000000    -4.515000000    -5.620000000
C     4.090000000    -3.812000000    -3.616000000
O     4.871000000    -2.656000000    -3.909000000
C     4.643000000    -1.387000000    -3.633000000
C     5.622000000    -0.504000000    -3.230000000
H     6.653000000    -0.839000000    -3.145000000
C     5.279000000     0.845000000    -3.126000000
O     6.317000000     1.699000000    -2.819000000
C     6.118000000     3.002000000    -2.507000000
C     6.520000000     4.000000000    -3.361000000
H     6.993000000     3.700000000    -4.293000000
C     6.374000000     5.348000000    -3.003000000
H     6.617000000     6.091000000    -3.758000000
C     5.764000000     5.669000000    -1.753000000
H     5.645000000     6.730000000    -1.548000000
C     5.530000000     4.680000000    -0.848000000
C     5.746000000     3.343000000    -1.230000000
H     5.641000000     2.594000000    -0.450000000
C    -0.106000000    -1.337000000     0.940000000
H    -0.594000000    -2.120000000     1.515000000
C    -0.767000000    -0.434000000     0.202000000
H    -1.849000000    -0.474000000     0.116000000
C    -0.171000000     0.668000000    -0.378000000
H    -0.780000000     1.382000000    -0.960000000
C     1.186000000     0.829000000    -0.307000000
H     1.737000000     1.634000000    -0.787000000
C     1.927000000    -0.129000000     0.432000000
H     3.013000000    -0.117000000     0.395000000
C     1.285000000    -1.174000000     1.103000000
C     2.133000000    -2.186000000     1.895000000
O     3.292000000    -1.875000000     2.063000000
O     1.587000000    -3.038000000     2.515000000
O     5.947000000    -5.870000000    -0.309000000
H     5.457000000    -5.760000000     0.506000000
H     6.506000000    -5.095000000    -0.359000000
O     3.465000000    -0.124000000     8.426000000
H     3.962000000    -0.274000000     7.621000000
H     3.349000000     0.825000000     8.461000000
O     0.830000000    -7.588000000     6.102000000
H     1.080000000    -7.034000000     6.842000000
H     0.892000000    -7.013000000     5.340000000
O     2.742000000    -4.554000000     4.452000000
H     2.250000000    -4.191000000     3.715000000
H     2.670000000    -5.502000000     4.344000000
O     4.136000000    -0.125000000     5.749000000
H     3.183000000    -0.098000000     5.673000000
H     4.397000000    -0.879000000     5.220000000
O     4.958000000    -1.735000000    -0.119000000
H     4.291000000    -1.779000000     0.566000000
H     5.275000000    -0.832000000    -0.087000000
O     4.304000000    -8.154000000     2.169000000
H     4.802000000    -8.964000000     2.059000000
H     4.132000000    -7.855000000     1.276000000
O     5.156000000    -1.932000000     4.155000000
H     4.572000000    -2.099000000     3.415000000
H     5.979000000    -2.355000000     3.910000000
O     4.441000000     0.453000000     2.600000000
H     3.962000000     0.962000000     3.253000000
H     4.141000000    -0.446000000     2.729000000
O     6.927000000     0.102000000     1.563000000
H     6.053000000     0.429000000     1.775000000
H     7.417000000     0.882000000     1.302000000
O     1.795000000    -1.712000000     5.010000000
H     1.329000000    -1.828000000     4.182000000
H     2.097000000    -2.590000000     5.240000000
O     4.935000000    -4.670000000     6.249000000
H     5.767000000    -4.198000000     6.241000000
H     4.468000000    -4.346000000     5.478000000
O     7.206000000    -3.171000000    -0.207000000
H     7.930000000    -2.674000000     0.175000000
H     6.452000000    -2.586000000    -0.137000000
O     2.451000000    -7.095000000     4.074000000
H     2.134000000    -7.760000000     4.685000000
H     2.968000000    -7.586000000     3.434000000
O     7.397000000    -2.660000000     2.860000000
H     7.945000000    -3.253000000     2.346000000
H     7.378000000    -1.850000000     2.352000000
O     4.220000000    -5.110000000     1.682000000
H     3.622000000    -5.070000000     0.936000000
H     3.746000000    -4.678000000     2.392000000
O     5.990000000     1.874000000     6.521000000
H     5.186000000     1.488000000     6.174000000
H     6.689000000     1.486000000     5.995000000
O     7.642000000     0.665000000     4.618000000
H     7.126000000     0.152000000     3.996000000
H     8.523000000     0.294000000     4.562000000
O     3.220000000    -3.415000000     8.047000000
H     2.896000000    -2.593000000     7.679000000
H     3.683000000    -3.836000000     7.323000000
