215
-1449.23222
C    -2.952000000    -3.488000000     3.013000000
H    -3.244000000    -3.936000000     2.067000000
C    -3.086000000    -2.101000000     3.242000000
C    -2.625000000    -1.548000000     4.476000000
H    -2.683000000    -0.495000000     4.739000000
C    -3.691000000    -1.171000000     2.133000000
O    -4.681000000    -1.808000000     1.334000000
H    -2.932000000    -1.010000000     1.353000000
O    -4.250000000     0.090000000     2.611000000
C    -4.003000000     1.315000000     1.901000000
C    -2.965000000     2.046000000     2.402000000
H    -2.480000000     1.726000000     3.321000000
C    -2.578000000     3.144000000     1.742000000
O    -1.496000000     3.848000000     2.246000000
C    -3.171000000     3.502000000     0.500000000
C    -2.666000000     4.615000000    -0.366000000
H    -3.481000000     4.964000000    -1.002000000
C    -1.491000000     4.425000000    -1.263000000
C    -1.614000000     4.143000000    -2.680000000
H    -2.546000000     4.131000000    -3.239000000
H    -2.475000000     5.468000000     0.289000000
C    -4.205000000     2.699000000    -0.055000000
H    -4.575000000     2.792000000    -1.073000000
C    -4.597000000     1.593000000     0.653000000
C    -5.670000000     0.659000000     0.098000000
H    -6.474000000     1.178000000    -0.428000000
H    -6.235000000     0.215000000     0.920000000
C    -4.997000000    -0.456000000    -0.699000000
C    -4.646000000    -0.221000000    -2.007000000
H    -5.037000000     0.681000000    -2.469000000
C    -4.577000000    -1.623000000    -0.058000000
C    -3.907000000    -2.574000000    -0.797000000
H    -3.659000000    -3.549000000    -0.385000000
C    -3.569000000    -2.341000000    -2.140000000
O    -2.793000000    -3.190000000    -2.804000000
C    -1.405000000    -2.774000000    -2.687000000
C    -0.448000000    -3.848000000    -2.180000000
C     0.936000000    -3.693000000    -2.139000000
H     1.354000000    -2.716000000    -2.368000000
C    -0.939000000    -4.977000000    -1.447000000
H    -2.020000000    -5.062000000    -1.384000000
O    -0.969000000    -2.391000000    -4.020000000
H    -1.317000000    -1.901000000    -2.023000000
C    -3.889000000    -1.095000000    -2.764000000
C    -3.522000000    -0.799000000    -4.212000000
H    -4.300000000    -0.220000000    -4.715000000
H    -3.574000000    -1.765000000    -4.719000000
C    -2.056000000    -0.284000000    -4.415000000
C    -1.926000000     1.076000000    -4.597000000
H    -2.819000000     1.686000000    -4.712000000
C    -0.926000000    -1.074000000    -4.280000000
C     0.342000000    -0.474000000    -4.277000000
H     1.202000000    -1.101000000    -4.053000000
C     0.473000000     0.917000000    -4.536000000
O     1.712000000     1.431000000    -4.544000000
C     2.200000000     2.060000000    -3.367000000
C     3.685000000     1.817000000    -3.165000000
C     4.308000000     0.554000000    -3.402000000
H     3.730000000    -0.236000000    -3.875000000
C     4.503000000     2.780000000    -2.533000000
H     4.123000000     3.796000000    -2.457000000
O     1.914000000     3.430000000    -3.424000000
H     1.715000000     1.586000000    -2.501000000
C    -0.664000000     1.691000000    -4.725000000
C    -0.602000000     3.241000000    -4.906000000
H    -1.522000000     3.665000000    -5.313000000
H     0.245000000     3.591000000    -5.500000000
C    -0.458000000     3.847000000    -3.475000000
C     0.778000000     3.856000000    -2.816000000
C     0.886000000     4.241000000    -1.470000000
H     1.860000000     4.336000000    -0.997000000
C    -0.215000000     4.553000000    -0.664000000
O     0.027000000     4.753000000     0.663000000
C    -0.213000000     3.667000000     1.529000000
H    -0.315000000     2.761000000     0.914000000
C     0.938000000     3.451000000     2.514000000
C     0.770000000     2.684000000     3.664000000
H    -0.188000000     2.196000000     3.822000000
C     2.166000000     4.089000000     2.273000000
H     2.371000000     4.702000000     1.399000000
C     3.194000000     3.933000000     3.198000000
O     4.420000000     4.384000000     2.943000000
C     3.067000000     3.090000000     4.318000000
H     3.923000000     2.816000000     4.930000000
C     1.838000000     2.446000000     4.554000000
O     1.777000000     1.512000000     5.577000000
C     0.667000000     1.168000000     6.310000000
C     0.031000000    -0.057000000     6.054000000
H     0.408000000    -0.653000000     5.227000000
C     0.212000000     1.978000000     7.321000000
H     0.801000000     2.869000000     7.520000000
C    -0.772000000     1.507000000     8.229000000
H    -1.032000000     1.994000000     9.166000000
C    -1.363000000     0.250000000     7.999000000
H    -2.102000000    -0.210000000     8.649000000
C    -1.003000000    -0.523000000     6.842000000
O    -1.552000000    -1.807000000     6.595000000
C    -1.891000000    -2.332000000     5.379000000
C    -1.814000000    -3.678000000     5.177000000
H    -1.349000000    -4.300000000     5.937000000
C    -2.349000000    -4.276000000     4.009000000
O    -2.055000000    -5.592000000     3.854000000
C    -2.369000000    -6.308000000     2.709000000
C    -1.356000000    -6.375000000     1.785000000
H    -0.402000000    -5.869000000     1.906000000
C    -3.625000000    -6.865000000     2.469000000
H    -4.387000000    -6.908000000     3.243000000
C    -3.945000000    -7.484000000     1.320000000
H    -4.883000000    -8.026000000     1.236000000
C    -2.911000000    -7.619000000     0.367000000
H    -3.101000000    -8.266000000    -0.486000000
C    -1.666000000    -7.039000000     0.593000000
O    -0.667000000    -7.075000000    -0.408000000
C    -0.112000000    -6.005000000    -0.997000000
C     1.241000000    -5.806000000    -1.033000000
H     1.946000000    -6.557000000    -0.685000000
C     1.759000000    -4.705000000    -1.630000000
O     3.136000000    -4.659000000    -1.817000000
C     3.803000000    -3.897000000    -2.685000000
C     4.645000000    -2.877000000    -2.316000000
H     4.762000000    -2.611000000    -1.268000000
C     3.745000000    -4.250000000    -4.035000000
H     3.073000000    -5.074000000    -4.262000000
C     4.420000000    -3.555000000    -4.986000000
H     4.350000000    -3.885000000    -6.020000000
C     5.083000000    -2.408000000    -4.639000000
H     5.465000000    -1.748000000    -5.413000000
C     5.274000000    -2.122000000    -3.284000000
O     6.028000000    -0.996000000    -2.945000000
C     5.530000000     0.247000000    -2.806000000
C     6.276000000     1.198000000    -2.097000000
H     7.301000000     1.014000000    -1.787000000
C     5.778000000     2.477000000    -2.016000000
O     6.368000000     3.461000000    -1.388000000
C     5.888000000     4.309000000    -0.431000000
C     5.997000000     5.674000000    -0.777000000
H     6.377000000     5.947000000    -1.758000000
C     5.431000000     6.563000000     0.128000000
H     5.416000000     7.613000000    -0.153000000
C     4.960000000     6.108000000     1.363000000
H     4.505000000     6.824000000     2.043000000
C     4.907000000     4.725000000     1.732000000
C     5.482000000     3.806000000     0.810000000
H     5.548000000     2.736000000     0.986000000
C     0.773000000    -1.521000000     1.261000000
H     0.398000000    -2.461000000     1.660000000
C    -0.204000000    -0.768000000     0.628000000
H    -1.231000000    -1.079000000     0.450000000
C     0.157000000     0.393000000    -0.022000000
H    -0.625000000     0.784000000    -0.674000000
C     1.477000000     0.840000000     0.087000000
H     1.796000000     1.705000000    -0.488000000
C     2.487000000     0.116000000     0.760000000
H     3.519000000     0.449000000     0.836000000
C     2.145000000    -1.136000000     1.359000000
C     3.202000000    -2.004000000     1.929000000
O     4.331000000    -1.551000000     2.003000000
O     2.866000000    -3.147000000     2.197000000
O     8.174000000    -3.168000000     2.273000000
H     7.262000000    -3.423000000     2.130000000
H     8.196000000    -2.232000000     2.070000000
O     8.605000000    -4.798000000    -0.106000000
H     7.871000000    -4.368000000     0.332000000
H     8.463000000    -5.732000000     0.050000000
O     0.801000000    -7.533000000     4.801000000
H     1.546000000    -7.810000000     5.335000000
H     1.191000000    -7.012000000     4.099000000
O     3.289000000    -1.338000000     5.582000000
H     3.638000000    -0.447000000     5.572000000
H     3.981000000    -1.870000000     5.188000000
O     8.120000000     0.567000000     5.852000000
H     8.254000000     1.410000000     5.420000000
H     7.376000000     0.178000000     5.393000000
O     6.904000000    -1.149000000     0.591000000
H     6.134000000    -1.698000000     0.740000000
H     6.765000000    -0.384000000     1.149000000
O     1.077000000    -3.543000000     4.198000000
H     0.514000000    -4.141000000     3.707000000
H     1.768000000    -3.303000000     3.580000000
O     1.696000000    -3.173000000     6.839000000
H     2.174000000    -2.363000000     6.659000000
H     1.526000000    -3.548000000     5.974000000
O     4.795000000    -7.445000000     2.178000000
H     3.839000000    -7.441000000     2.143000000
H     5.069000000    -7.432000000     1.261000000
O     4.574000000    -3.624000000     4.395000000
H     3.957000000    -3.778000000     3.680000000
H     5.326000000    -3.204000000     3.976000000
O     4.952000000    -5.379000000     6.480000000
H     4.798000000    -4.827000000     5.713000000
H     4.394000000    -6.144000000     6.339000000
O     5.713000000    -3.945000000     1.528000000
H     5.226000000    -4.626000000     1.991000000
H     5.098000000    -3.215000000     1.458000000
O     2.162000000    -5.880000000     2.284000000
H     2.064000000    -6.396000000     1.484000000
H     2.414000000    -5.009000000     1.978000000
O     8.377000000    -1.943000000    -1.618000000
H     7.877000000    -2.757000000    -1.676000000
H     7.977000000    -1.467000000    -0.891000000
O     7.712000000     0.787000000     2.678000000
H     7.974000000     1.696000000     2.822000000
H     8.518000000     0.346000000     2.407000000
O     5.467000000    -0.183000000     4.005000000
H     6.297000000    -0.003000000     3.564000000
H     4.877000000    -0.455000000     3.302000000
O     6.065000000    -0.772000000     8.115000000
H     5.527000000    -0.297000000     8.749000000
H     5.563000000    -1.563000000     7.920000000
O     4.326000000    -3.437000000     8.595000000
H     4.679000000    -4.112000000     8.015000000
H     3.431000000    -3.300000000     8.286000000
O     5.879000000    -8.193000000     4.392000000
H     5.505000000    -7.878000000     3.569000000
H     6.268000000    -7.415000000     4.792000000
