215
-1476.37913
C    -3.398000000    -2.906000000     3.508000000
H    -4.112000000    -3.446000000     2.891000000
C    -3.168000000    -1.519000000     3.375000000
C    -2.241000000    -0.903000000     4.201000000
H    -1.949000000     0.130000000     4.034000000
C    -3.743000000    -0.686000000     2.249000000
O    -4.710000000    -1.440000000     1.456000000
H    -2.888000000    -0.459000000     1.595000000
O    -4.242000000     0.568000000     2.629000000
C    -3.949000000     1.688000000     1.840000000
C    -2.911000000     2.536000000     2.223000000
H    -2.515000000     2.415000000     3.228000000
C    -2.387000000     3.517000000     1.355000000
O    -1.332000000     4.334000000     1.903000000
C    -2.953000000     3.784000000     0.129000000
C    -2.415000000     4.855000000    -0.779000000
H    -3.241000000     5.181000000    -1.415000000
C    -1.163000000     4.449000000    -1.613000000
C    -1.235000000     3.924000000    -2.901000000
H    -2.149000000     3.899000000    -3.490000000
H    -2.188000000     5.703000000    -0.128000000
C    -3.932000000     2.892000000    -0.283000000
H    -4.400000000     3.031000000    -1.254000000
C    -4.418000000     1.814000000     0.523000000
C    -5.542000000     0.907000000     0.044000000
H    -6.232000000     1.459000000    -0.598000000
H    -6.258000000     0.603000000     0.810000000
C    -4.942000000    -0.301000000    -0.644000000
C    -4.802000000    -0.296000000    -2.058000000
H    -5.214000000     0.550000000    -2.603000000
C    -4.593000000    -1.440000000     0.113000000
C    -3.998000000    -2.532000000    -0.582000000
H    -3.747000000    -3.338000000     0.102000000
C    -3.671000000    -2.433000000    -1.912000000
O    -2.848000000    -3.387000000    -2.500000000
C    -1.471000000    -3.127000000    -2.599000000
C    -0.714000000    -4.230000000    -1.946000000
C     0.682000000    -4.197000000    -2.230000000
H     1.161000000    -3.428000000    -2.831000000
C    -1.206000000    -5.209000000    -1.063000000
H    -2.287000000    -5.211000000    -0.955000000
O    -1.119000000    -2.858000000    -3.930000000
H    -1.054000000    -2.261000000    -2.065000000
C    -3.986000000    -1.278000000    -2.653000000
C    -3.495000000    -1.101000000    -4.114000000
H    -4.193000000    -0.417000000    -4.603000000
H    -3.577000000    -2.068000000    -4.614000000
C    -2.065000000    -0.617000000    -4.312000000
C    -1.807000000     0.728000000    -4.628000000
H    -2.701000000     1.282000000    -4.902000000
C    -0.995000000    -1.500000000    -4.152000000
C     0.374000000    -0.990000000    -4.177000000
H     1.231000000    -1.656000000    -4.116000000
C     0.570000000     0.392000000    -4.393000000
O     1.884000000     0.855000000    -4.480000000
C     2.387000000     1.628000000    -3.417000000
C     3.866000000     1.256000000    -3.189000000
C     4.280000000    -0.050000000    -3.413000000
H     3.638000000    -0.663000000    -4.039000000
C     4.694000000     2.160000000    -2.500000000
H     4.363000000     3.165000000    -2.249000000
O     2.243000000     3.046000000    -3.641000000
H     1.910000000     1.389000000    -2.455000000
C    -0.498000000     1.266000000    -4.619000000
C    -0.343000000     2.728000000    -4.928000000
H    -1.250000000     3.044000000    -5.446000000
H     0.499000000     2.916000000    -5.598000000
C    -0.122000000     3.461000000    -3.571000000
C     1.146000000     3.529000000    -2.910000000
C     1.286000000     4.098000000    -1.666000000
H     2.258000000     4.189000000    -1.188000000
C     0.122000000     4.462000000    -0.951000000
O     0.275000000     4.955000000     0.356000000
C    -0.038000000     4.005000000     1.407000000
H    -0.032000000     2.976000000     1.020000000
C     1.120000000     3.965000000     2.427000000
C     0.848000000     3.624000000     3.729000000
H    -0.151000000     3.294000000     4.002000000
C     2.433000000     4.005000000     1.996000000
H     2.604000000     4.160000000     0.934000000
C     3.466000000     3.834000000     2.958000000
O     4.760000000     3.880000000     2.598000000
C     3.197000000     3.622000000     4.319000000
H     4.047000000     3.488000000     4.984000000
C     1.851000000     3.527000000     4.693000000
O     1.470000000     3.235000000     6.022000000
C     0.438000000     2.405000000     6.368000000
C     0.370000000     1.077000000     5.981000000
H     1.194000000     0.578000000     5.477000000
C    -0.633000000     2.959000000     7.121000000
H    -0.557000000     3.989000000     7.458000000
C    -1.767000000     2.240000000     7.578000000
H    -2.455000000     2.588000000     8.343000000
C    -1.779000000     0.864000000     7.217000000
H    -2.649000000     0.306000000     7.553000000
C    -0.743000000     0.302000000     6.450000000
O    -0.841000000    -1.065000000     6.191000000
C    -1.640000000    -1.676000000     5.252000000
C    -1.737000000    -3.041000000     5.263000000
H    -1.390000000    -3.625000000     6.112000000
C    -2.617000000    -3.680000000     4.405000000
O    -2.844000000    -5.046000000     4.437000000
C    -2.945000000    -5.865000000     3.378000000
C    -1.840000000    -5.910000000     2.505000000
H    -0.916000000    -5.359000000     2.662000000
C    -4.116000000    -6.611000000     3.200000000
H    -4.998000000    -6.488000000     3.823000000
C    -4.114000000    -7.548000000     2.179000000
H    -5.007000000    -8.146000000     2.015000000
C    -3.080000000    -7.510000000     1.199000000
H    -3.257000000    -8.225000000     0.399000000
C    -1.918000000    -6.758000000     1.425000000
O    -0.899000000    -6.887000000     0.557000000
C    -0.355000000    -5.974000000    -0.310000000
C     0.995000000    -5.886000000    -0.519000000
H     1.708000000    -6.498000000     0.029000000
C     1.524000000    -5.009000000    -1.471000000
O     2.880000000    -4.884000000    -1.674000000
C     3.486000000    -4.234000000    -2.731000000
C     4.449000000    -3.235000000    -2.472000000
H     4.735000000    -2.913000000    -1.474000000
C     3.285000000    -4.661000000    -3.998000000
H     2.659000000    -5.538000000    -4.144000000
C     3.963000000    -4.206000000    -5.121000000
H     3.883000000    -4.672000000    -6.100000000
C     4.896000000    -3.175000000    -4.858000000
H     5.572000000    -2.814000000    -5.628000000
C     5.102000000    -2.651000000    -3.576000000
O     6.034000000    -1.616000000    -3.333000000
C     5.571000000    -0.402000000    -2.968000000
C     6.405000000     0.540000000    -2.365000000
H     7.427000000     0.223000000    -2.175000000
C     5.954000000     1.814000000    -2.074000000
O     6.801000000     2.782000000    -1.482000000
C     6.321000000     3.769000000    -0.670000000
C     6.315000000     5.080000000    -1.014000000
H     6.800000000     5.539000000    -1.872000000
C     5.777000000     5.978000000    -0.106000000
H     5.960000000     7.032000000    -0.297000000
C     5.185000000     5.494000000     1.095000000
H     4.759000000     6.205000000     1.798000000
C     5.168000000     4.191000000     1.376000000
C     5.743000000     3.266000000     0.516000000
H     5.677000000     2.198000000     0.707000000
C     0.337000000    -2.269000000     0.668000000
H     0.329000000    -3.298000000     1.018000000
C    -0.877000000    -1.601000000     0.482000000
H    -1.773000000    -2.148000000     0.763000000
C    -0.940000000    -0.307000000    -0.082000000
H    -1.871000000     0.217000000    -0.270000000
C     0.228000000     0.358000000    -0.516000000
H     0.223000000     1.353000000    -0.954000000
C     1.426000000    -0.268000000    -0.266000000
H     2.336000000     0.306000000    -0.416000000
C     1.538000000    -1.560000000     0.290000000
C     2.843000000    -2.094000000     0.747000000
O     3.864000000    -1.418000000     0.722000000
O     2.922000000    -3.174000000     1.350000000
O     5.170000000    -2.659000000     3.028000000
H     4.444000000    -2.253000000     2.555000000
H     5.261000000    -3.524000000     2.628000000
O     6.547000000    -2.815000000     5.342000000
H     7.419000000    -2.651000000     4.983000000
H     5.976000000    -2.857000000     4.575000000
O     6.639000000    -4.465000000    -0.451000000
H     5.962000000    -4.768000000     0.155000000
H     6.694000000    -5.155000000    -1.113000000
O     1.333000000    -6.972000000     3.065000000
H     2.029000000    -7.477000000     2.645000000
H     0.525000000    -7.317000000     2.687000000
O     5.713000000    -0.479000000     6.180000000
H     6.021000000    -1.309000000     5.816000000
H     5.461000000     0.040000000     5.416000000
O     5.322000000     1.064000000     3.643000000
H     4.458000000     0.679000000     3.791000000
H     5.147000000     1.992000000     3.488000000
O     8.477000000    -2.553000000     0.066000000
H     8.003000000    -3.370000000    -0.087000000
H     7.807000000    -1.940000000     0.369000000
O     2.922000000    -3.616000000     6.192000000
H     2.703000000    -3.674000000     5.262000000
H     2.940000000    -2.677000000     6.376000000
O     3.190000000    -0.838000000     6.389000000
H     2.788000000    -0.379000000     7.126000000
H     4.131000000    -0.787000000     6.560000000
O     6.773000000    -7.646000000     0.967000000
H     5.903000000    -7.570000000     0.575000000
H     7.362000000    -7.259000000     0.320000000
O     2.867000000     0.040000000     3.352000000
H     2.626000000    -0.450000000     2.566000000
H     2.583000000    -0.517000000     4.077000000
O     4.592000000    -7.116000000    -0.699000000
H     3.901000000    -7.731000000    -0.945000000
H     4.982000000    -6.848000000    -1.531000000
O     5.783000000    -5.318000000     6.252000000
H     6.193000000    -4.500000000     5.970000000
H     5.108000000    -5.487000000     5.595000000
O     4.722000000    -5.107000000     1.151000000
H     4.450000000    -5.711000000     0.460000000
H     4.100000000    -4.381000000     1.093000000
O     2.130000000    -4.192000000     3.513000000
H     1.720000000    -4.980000000     3.155000000
H     2.411000000    -3.698000000     2.743000000
O     8.921000000    -0.022000000     2.059000000
H     8.003000000    -0.175000000     1.834000000
H     9.188000000     0.706000000     1.497000000
O     6.563000000    -1.076000000     1.383000000
H     6.158000000    -1.578000000     2.090000000
H     5.841000000    -0.875000000     0.787000000
O     7.084000000    -4.962000000     2.971000000
H     7.070000000    -5.738000000     3.531000000
H     6.461000000    -5.161000000     2.271000000
O     4.157000000    -7.548000000     2.472000000
H     5.066000000    -7.656000000     2.751000000
H     4.107000000    -6.644000000     2.163000000
