215
-1452.44001
C     1.054000000     2.586000000    -4.167000000
H     0.868000000     1.595000000    -4.572000000
C     2.171000000     2.655000000    -3.389000000
C     2.551000000     3.891000000    -2.848000000
H     3.362000000     4.070000000    -2.147000000
C     2.832000000     1.403000000    -2.978000000
O     3.051000000     0.462000000    -4.099000000
H     2.195000000     0.893000000    -2.240000000
O     4.130000000     1.592000000    -2.349000000
C     4.426000000     0.931000000    -1.173000000
C     4.269000000     1.630000000     0.025000000
H     4.055000000     2.695000000    -0.029000000
C     4.254000000     0.869000000     1.206000000
O     3.810000000     1.527000000     2.318000000
C     4.677000000    -0.483000000     1.228000000
C     4.619000000    -1.236000000     2.541000000
H     5.410000000    -1.989000000     2.512000000
C     3.327000000    -1.862000000     3.056000000
C     2.972000000    -3.227000000     2.772000000
H     3.737000000    -3.787000000     2.241000000
H     4.946000000    -0.505000000     3.284000000
C     4.843000000    -1.159000000    -0.007000000
H     5.116000000    -2.210000000     0.043000000
C     4.765000000    -0.440000000    -1.252000000
C     5.030000000    -1.195000000    -2.595000000
H     5.621000000    -2.070000000    -2.317000000
H     5.678000000    -0.586000000    -3.228000000
C     3.716000000    -1.718000000    -3.155000000
C     3.342000000    -3.012000000    -2.705000000
H     4.012000000    -3.552000000    -2.040000000
C     2.801000000    -0.920000000    -3.853000000
C     1.541000000    -1.429000000    -4.202000000
H     0.833000000    -0.823000000    -4.761000000
C     1.159000000    -2.671000000    -3.699000000
O    -0.100000000    -3.043000000    -3.933000000
C    -1.128000000    -2.809000000    -2.945000000
C    -2.355000000    -2.081000000    -3.557000000
C    -3.575000000    -1.940000000    -2.779000000
H    -3.666000000    -2.409000000    -1.802000000
C    -2.288000000    -1.402000000    -4.791000000
H    -1.389000000    -1.514000000    -5.392000000
O    -1.494000000    -4.008000000    -2.295000000
H    -0.713000000    -2.093000000    -2.220000000
C     1.977000000    -3.366000000    -2.841000000
C     1.439000000    -4.704000000    -2.298000000
H     2.290000000    -5.348000000    -2.064000000
H     0.998000000    -5.260000000    -3.128000000
C     0.563000000    -4.629000000    -1.112000000
C     1.168000000    -4.823000000     0.104000000
H     2.215000000    -5.105000000     0.182000000
C    -0.815000000    -4.381000000    -1.207000000
C    -1.563000000    -4.162000000    -0.026000000
H    -2.599000000    -3.842000000    -0.095000000
C    -0.953000000    -4.494000000     1.206000000
O    -1.701000000    -4.376000000     2.376000000
C    -1.531000000    -3.095000000     2.969000000
C    -2.772000000    -2.334000000     3.444000000
C    -3.969000000    -2.210000000     2.634000000
H    -3.957000000    -2.722000000     1.675000000
C    -2.756000000    -1.523000000     4.586000000
H    -1.888000000    -1.471000000     5.238000000
O    -0.555000000    -3.251000000     3.962000000
H    -1.036000000    -2.541000000     2.157000000
C     0.426000000    -4.891000000     1.302000000
C     1.169000000    -5.060000000     2.649000000
H     1.998000000    -5.767000000     2.568000000
H     0.475000000    -5.526000000     3.352000000
C     1.642000000    -3.674000000     3.092000000
C     0.767000000    -2.851000000     3.762000000
C     1.138000000    -1.530000000     4.163000000
H     0.353000000    -0.980000000     4.677000000
C     2.374000000    -1.012000000     3.729000000
O     2.670000000     0.294000000     3.925000000
C     2.542000000     1.283000000     2.806000000
H     1.948000000     0.788000000     2.023000000
C     1.768000000     2.529000000     3.301000000
C     1.845000000     3.733000000     2.530000000
H     2.491000000     3.776000000     1.657000000
C     0.839000000     2.523000000     4.379000000
H     0.531000000     1.547000000     4.745000000
C    -0.005000000     3.620000000     4.737000000
O    -1.068000000     3.574000000     5.648000000
C     0.233000000     4.887000000     4.083000000
H    -0.326000000     5.755000000     4.424000000
C     1.060000000     4.839000000     2.949000000
O     1.069000000     6.052000000     2.270000000
C     1.948000000     6.415000000     1.222000000
C     1.631000000     6.015000000    -0.090000000
H     0.712000000     5.486000000    -0.332000000
C     3.206000000     6.946000000     1.465000000
H     3.379000000     7.126000000     2.523000000
C     4.136000000     7.091000000     0.422000000
H     5.139000000     7.384000000     0.722000000
C     3.791000000     6.791000000    -0.862000000
H     4.511000000     7.053000000    -1.634000000
C     2.510000000     6.288000000    -1.109000000
O     2.242000000     6.119000000    -2.478000000
C     1.788000000     4.997000000    -3.016000000
C     0.619000000     4.899000000    -3.774000000
H    -0.056000000     5.744000000    -3.877000000
C     0.323000000     3.719000000    -4.462000000
O    -0.640000000     3.759000000    -5.472000000
C    -0.889000000     2.653000000    -6.231000000
C    -1.922000000     1.787000000    -5.904000000
H    -2.584000000     1.989000000    -5.065000000
C    -0.013000000     2.321000000    -7.260000000
H     0.894000000     2.895000000    -7.430000000
C    -0.259000000     1.202000000    -8.064000000
H     0.487000000     1.062000000    -8.842000000
C    -1.407000000     0.389000000    -7.859000000
H    -1.696000000    -0.463000000    -8.469000000
C    -2.220000000     0.717000000    -6.778000000
O    -3.292000000    -0.087000000    -6.492000000
C    -3.376000000    -0.603000000    -5.203000000
C    -4.537000000    -0.556000000    -4.458000000
H    -5.335000000     0.046000000    -4.886000000
C    -4.644000000    -1.229000000    -3.292000000
O    -5.886000000    -1.219000000    -2.714000000
C    -6.193000000    -1.909000000    -1.583000000
C    -5.953000000    -1.278000000    -0.362000000
H    -5.477000000    -0.301000000    -0.334000000
C    -6.605000000    -3.219000000    -1.606000000
H    -6.816000000    -3.621000000    -2.594000000
C    -6.707000000    -3.992000000    -0.412000000
H    -6.916000000    -5.059000000    -0.413000000
C    -6.557000000    -3.266000000     0.788000000
H    -6.755000000    -3.733000000     1.749000000
C    -6.207000000    -1.901000000     0.846000000
O    -6.120000000    -1.243000000     2.076000000
C    -5.080000000    -1.459000000     2.993000000
C    -5.007000000    -0.760000000     4.171000000
H    -5.791000000    -0.067000000     4.461000000
C    -3.874000000    -0.805000000     4.942000000
O    -3.970000000    -0.175000000     6.168000000
C    -2.940000000     0.680000000     6.656000000
C    -2.665000000     0.614000000     7.992000000
H    -3.098000000    -0.109000000     8.678000000
C    -1.714000000     1.426000000     8.569000000
H    -1.336000000     1.269000000     9.576000000
C    -1.111000000     2.447000000     7.773000000
H    -0.343000000     3.070000000     8.223000000
C    -1.394000000     2.526000000     6.410000000
C    -2.319000000     1.610000000     5.889000000
H    -2.566000000     1.658000000     4.831000000
C    -2.455000000     0.501000000    -0.661000000
H    -3.467000000     0.243000000    -0.965000000
C    -1.709000000    -0.523000000    -0.061000000
H    -2.258000000    -1.366000000     0.350000000
C    -0.319000000    -0.383000000    -0.005000000
H     0.307000000    -1.163000000     0.392000000
C     0.372000000     0.716000000    -0.527000000
H     1.446000000     0.811000000    -0.394000000
C    -0.440000000     1.720000000    -1.014000000
H     0.019000000     2.638000000    -1.373000000
C    -1.853000000     1.554000000    -1.128000000
C    -2.668000000     2.635000000    -1.714000000
O    -2.170000000     3.666000000    -2.250000000
O    -3.868000000     2.580000000    -1.643000000
O    -2.225000000     4.345000000     1.063000000
H    -2.324000000     4.657000000     0.163000000
H    -2.792000000     3.576000000     1.113000000
O    -7.482000000     5.059000000    -0.613000000
H    -6.576000000     5.325000000    -0.454000000
H    -7.655000000     4.390000000     0.049000000
O    -8.611000000     2.616000000     0.940000000
H    -8.438000000     2.776000000     1.868000000
H    -7.747000000     2.460000000     0.559000000
O    -2.849000000     6.173000000     3.105000000
H    -2.693000000     7.059000000     2.780000000
H    -2.222000000     5.629000000     2.627000000
O    -3.400000000     6.299000000    -7.140000000
H    -3.396000000     5.876000000    -6.281000000
H    -3.686000000     7.196000000    -6.964000000
O    -0.521000000     7.813000000    -4.888000000
H    -1.057000000     7.133000000    -5.296000000
H     0.364000000     7.648000000    -5.214000000
O    -3.406000000     7.420000000    -3.014000000
H    -3.159000000     7.949000000    -3.773000000
H    -4.360000000     7.361000000    -3.064000000
O    -6.763000000     3.653000000    -6.434000000
H    -6.837000000     2.913000000    -5.831000000
H    -7.611000000     4.093000000    -6.379000000
O    -1.791000000     1.669000000     2.189000000
H    -1.434000000     1.109000000     1.500000000
H    -1.091000000     2.293000000     2.378000000
O    -1.396000000     6.048000000    -1.704000000
H    -1.415000000     5.114000000    -1.910000000
H    -2.154000000     6.410000000    -2.162000000
O    -0.370000000     8.529000000    -2.337000000
H    -0.631000000     8.570000000    -3.257000000
H    -0.471000000     7.607000000    -2.100000000
O    -4.600000000     1.917000000     2.479000000
H    -3.658000000     1.752000000     2.494000000
H    -4.879000000     1.800000000     3.387000000
O    -5.889000000     2.087000000    -0.110000000
H    -5.308000000     1.873000000     0.620000000
H    -5.301000000     2.375000000    -0.808000000
O    -7.659000000     5.063000000    -3.430000000
H    -7.030000000     4.445000000    -3.801000000
H    -7.510000000     5.018000000    -2.485000000
O    -4.662000000     5.109000000    -0.651000000
H    -4.468000000     4.296000000    -1.117000000
H    -4.481000000     5.799000000    -1.289000000
O    -3.014000000     4.618000000    -4.608000000
H    -2.846000000     4.348000000    -3.706000000
H    -2.291000000     4.242000000    -5.110000000
O    -7.238000000     1.480000000    -2.576000000
H    -6.755000000     1.540000000    -3.400000000
H    -6.559000000     1.434000000    -1.903000000
O    -2.082000000     8.208000000     0.753000000
H    -1.283000000     8.728000000     0.834000000
H    -1.943000000     7.675000000    -0.029000000
O    -5.485000000     3.602000000    -3.543000000
H    -5.020000000     3.108000000    -2.868000000
H    -4.792000000     4.016000000    -4.057000000
