215
-1471.39391
C    -2.853000000    -2.872000000     3.182000000
H    -3.118000000    -3.277000000     2.209000000
C    -3.125000000    -1.517000000     3.383000000
C    -2.762000000    -0.966000000     4.636000000
H    -2.915000000     0.104000000     4.748000000
C    -3.624000000    -0.683000000     2.197000000
O    -4.575000000    -1.462000000     1.393000000
H    -2.701000000    -0.486000000     1.632000000
O    -4.264000000     0.573000000     2.690000000
C    -3.815000000     1.692000000     2.037000000
C    -2.790000000     2.480000000     2.584000000
H    -2.387000000     2.283000000     3.574000000
C    -2.322000000     3.515000000     1.860000000
O    -1.192000000     4.187000000     2.340000000
C    -2.920000000     3.900000000     0.630000000
C    -2.286000000     5.021000000    -0.241000000
H    -3.074000000     5.320000000    -0.935000000
C    -1.115000000     4.613000000    -1.071000000
C    -1.257000000     4.137000000    -2.411000000
H    -2.187000000     4.270000000    -2.957000000
H    -2.036000000     5.827000000     0.451000000
C    -3.965000000     3.069000000     0.113000000
H    -4.356000000     3.323000000    -0.869000000
C    -4.450000000     2.053000000     0.892000000
C    -5.456000000     1.084000000     0.306000000
H    -6.151000000     1.659000000    -0.309000000
H    -6.065000000     0.657000000     1.106000000
C    -4.865000000    -0.057000000    -0.507000000
C    -4.637000000     0.164000000    -1.858000000
H    -5.055000000     1.096000000    -2.230000000
C    -4.544000000    -1.306000000     0.060000000
C    -3.899000000    -2.268000000    -0.667000000
H    -3.616000000    -3.216000000    -0.218000000
C    -3.642000000    -2.050000000    -2.014000000
O    -2.927000000    -2.991000000    -2.733000000
C    -1.521000000    -2.834000000    -2.916000000
C    -0.796000000    -4.091000000    -2.649000000
C     0.463000000    -4.341000000    -3.274000000
H     0.786000000    -3.748000000    -4.125000000
C    -1.254000000    -5.017000000    -1.639000000
H    -2.284000000    -4.912000000    -1.309000000
O    -1.364000000    -2.344000000    -4.251000000
H    -1.077000000    -2.150000000    -2.178000000
C    -4.081000000    -0.882000000    -2.652000000
C    -3.777000000    -0.604000000    -4.143000000
H    -4.513000000     0.077000000    -4.576000000
H    -4.025000000    -1.524000000    -4.678000000
C    -2.334000000    -0.079000000    -4.315000000
C    -2.013000000     1.300000000    -4.441000000
H    -2.790000000     2.060000000    -4.420000000
C    -1.276000000    -0.981000000    -4.384000000
C     0.072000000    -0.562000000    -4.500000000
H     0.889000000    -1.268000000    -4.372000000
C     0.368000000     0.753000000    -4.602000000
O     1.713000000     1.103000000    -4.436000000
C     2.050000000     1.609000000    -3.136000000
C     3.431000000     1.132000000    -2.862000000
C     3.633000000    -0.241000000    -2.733000000
H     2.738000000    -0.822000000    -2.944000000
C     4.438000000     1.973000000    -2.390000000
H     4.253000000     3.040000000    -2.293000000
O     2.049000000     3.060000000    -3.124000000
H     1.296000000     1.311000000    -2.393000000
C    -0.669000000     1.731000000    -4.593000000
C    -0.400000000     3.235000000    -4.623000000
H    -1.226000000     3.766000000    -5.100000000
H     0.508000000     3.440000000    -5.193000000
C    -0.185000000     3.755000000    -3.154000000
C     1.028000000     3.639000000    -2.504000000
C     1.235000000     3.980000000    -1.183000000
H     2.183000000     3.791000000    -0.686000000
C     0.159000000     4.531000000    -0.480000000
O     0.420000000     4.800000000     0.787000000
C     0.097000000     3.698000000     1.735000000
H    -0.095000000     2.793000000     1.139000000
C     1.252000000     3.550000000     2.719000000
C     0.981000000     2.784000000     3.821000000
H    -0.017000000     2.398000000     4.015000000
C     2.605000000     3.974000000     2.451000000
H     2.765000000     4.559000000     1.549000000
C     3.624000000     3.508000000     3.236000000
O     4.946000000     3.838000000     2.973000000
C     3.349000000     2.716000000     4.328000000
H     4.162000000     2.316000000     4.928000000
C     2.036000000     2.405000000     4.683000000
O     1.917000000     1.734000000     5.908000000
C     0.656000000     1.524000000     6.504000000
C     0.088000000     0.238000000     6.407000000
H     0.470000000    -0.543000000     5.755000000
C     0.054000000     2.523000000     7.319000000
H     0.520000000     3.496000000     7.450000000
C    -1.121000000     2.202000000     7.993000000
H    -1.537000000     2.997000000     8.608000000
C    -1.683000000     0.986000000     7.843000000
H    -2.589000000     0.748000000     8.394000000
C    -1.119000000    -0.065000000     7.099000000
O    -1.747000000    -1.285000000     6.847000000
C    -2.192000000    -1.779000000     5.654000000
C    -1.889000000    -3.145000000     5.404000000
H    -1.410000000    -3.748000000     6.171000000
C    -2.263000000    -3.629000000     4.157000000
O    -1.897000000    -4.959000000     3.813000000
C    -2.341000000    -5.583000000     2.670000000
C    -1.439000000    -6.084000000     1.740000000
H    -0.405000000    -5.748000000     1.734000000
C    -3.671000000    -6.005000000     2.560000000
H    -4.302000000    -5.678000000     3.383000000
C    -4.161000000    -6.580000000     1.398000000
H    -5.230000000    -6.748000000     1.296000000
C    -3.223000000    -6.912000000     0.432000000
H    -3.431000000    -7.425000000    -0.504000000
C    -1.872000000    -6.699000000     0.578000000
O    -0.955000000    -7.023000000    -0.393000000
C    -0.465000000    -6.099000000    -1.311000000
C     0.833000000    -6.264000000    -1.925000000
H     1.452000000    -7.108000000    -1.632000000
C     1.264000000    -5.406000000    -2.891000000
O     2.366000000    -5.689000000    -3.701000000
C     3.302000000    -4.747000000    -4.064000000
C     3.863000000    -3.993000000    -3.038000000
H     3.555000000    -4.201000000    -2.017000000
C     3.640000000    -4.536000000    -5.406000000
H     3.097000000    -5.091000000    -6.167000000
C     4.570000000    -3.492000000    -5.701000000
H     4.753000000    -3.206000000    -6.734000000
C     5.133000000    -2.739000000    -4.668000000
H     5.851000000    -1.968000000    -4.935000000
C     4.756000000    -2.960000000    -3.351000000
O     5.160000000    -2.074000000    -2.377000000
C     4.891000000    -0.736000000    -2.347000000
C     5.820000000     0.078000000    -1.806000000
H     6.796000000    -0.244000000    -1.452000000
C     5.616000000     1.454000000    -1.858000000
O     6.547000000     2.259000000    -1.283000000
C     6.207000000     3.346000000    -0.465000000
C     6.730000000     4.606000000    -0.709000000
H     7.227000000     4.827000000    -1.650000000
C     6.372000000     5.668000000     0.184000000
H     6.802000000     6.659000000     0.061000000
C     5.812000000     5.366000000     1.432000000
H     5.766000000     6.139000000     2.195000000
C     5.366000000     4.108000000     1.706000000
C     5.588000000     3.087000000     0.735000000
H     5.169000000     2.097000000     0.896000000
C     1.162000000    -2.552000000     1.029000000
H     0.939000000    -3.608000000     1.159000000
C     0.154000000    -1.737000000     0.513000000
H    -0.783000000    -2.185000000     0.190000000
C     0.421000000    -0.411000000     0.253000000
H    -0.379000000     0.288000000    -0.068000000
C     1.641000000     0.124000000     0.469000000
H     1.855000000     1.177000000     0.304000000
C     2.618000000    -0.713000000     0.929000000
H     3.618000000    -0.345000000     1.143000000
C     2.443000000    -2.020000000     1.271000000
C     3.635000000    -2.765000000     1.882000000
O     4.753000000    -2.434000000     1.711000000
O     3.400000000    -3.893000000     2.335000000
O     3.026000000    -1.197000000     4.702000000
H     2.458000000    -1.013000000     3.955000000
H     3.151000000    -2.146000000     4.681000000
O     5.433000000    -4.700000000     0.435000000
H     4.875000000    -4.151000000     0.988000000
H     5.254000000    -5.594000000     0.727000000
O     1.107000000    -3.596000000     7.489000000
H     1.215000000    -3.759000000     6.552000000
H     2.000000000    -3.517000000     7.823000000
O     1.590000000    -7.831000000     0.890000000
H     1.708000000    -8.499000000     0.215000000
H     0.743000000    -7.433000000     0.687000000
O     6.133000000    -3.533000000     3.809000000
H     6.973000000    -3.109000000     3.633000000
H     5.576000000    -3.277000000     3.073000000
O     2.785000000    -0.320000000     7.997000000
H     2.759000000    -1.258000000     8.184000000
H     2.286000000    -0.224000000     7.186000000
O     3.513000000    -3.198000000     8.400000000
H     3.904000000    -3.522000000     9.212000000
H     4.113000000    -3.489000000     7.713000000
O     2.169000000    -4.089000000     4.860000000
H     2.226000000    -4.136000000     3.905000000
H     2.912000000    -4.608000000     5.169000000
O     7.336000000     0.477000000     3.921000000
H     7.022000000     0.293000000     3.036000000
H     6.655000000     0.126000000     4.495000000
O     8.050000000    -3.315000000     0.231000000
H     7.190000000    -3.655000000     0.478000000
H     8.377000000    -3.939000000    -0.417000000
O     4.008000000    -7.000000000     4.923000000
H     4.013000000    -7.280000000     4.008000000
H     3.221000000    -7.400000000     5.292000000
O     4.836000000    -4.497000000     6.298000000
H     5.247000000    -4.183000000     5.492000000
H     5.075000000    -5.423000000     6.344000000
O     5.386000000    -0.185000000     6.061000000
H     5.663000000    -0.911000000     6.620000000
H     4.628000000    -0.526000000     5.585000000
O     6.427000000    -6.115000000     3.053000000
H     5.509000000    -5.960000000     2.828000000
H     6.693000000    -5.328000000     3.529000000
O     3.728000000    -6.679000000     1.871000000
H     2.945000000    -7.167000000     1.613000000
H     3.416000000    -5.786000000     2.018000000
O     9.371000000    -1.237000000    -0.780000000
H     8.951000000    -1.853000000    -0.180000000
H     9.832000000    -1.792000000    -1.409000000
O     9.451000000    -2.667000000     2.940000000
H     8.742000000    -2.741000000     2.301000000
H     9.639000000    -1.729000000     2.980000000
O     6.907000000    -0.959000000     1.508000000
H     7.225000000    -1.350000000     0.695000000
H     6.048000000    -1.358000000     1.646000000
O     6.690000000    -7.937000000     0.475000000
H     6.907000000    -7.029000000     0.264000000
H     6.308000000    -7.895000000     1.351000000
