215
-1454.99473
C    -2.694000000    -2.692000000     3.387000000
H    -2.797000000    -3.143000000     2.404000000
C    -3.012000000    -1.312000000     3.559000000
C    -2.790000000    -0.688000000     4.825000000
H    -2.995000000     0.377000000     4.892000000
C    -3.488000000    -0.469000000     2.344000000
O    -4.465000000    -1.245000000     1.528000000
H    -2.629000000    -0.049000000     1.798000000
O    -4.190000000     0.743000000     2.857000000
C    -3.809000000     1.868000000     2.224000000
C    -2.818000000     2.679000000     2.720000000
H    -2.363000000     2.340000000     3.647000000
C    -2.335000000     3.656000000     1.913000000
O    -1.232000000     4.149000000     2.431000000
C    -2.804000000     3.983000000     0.662000000
C    -2.242000000     5.191000000    -0.069000000
H    -3.011000000     5.665000000    -0.684000000
C    -1.120000000     4.676000000    -0.962000000
C    -1.354000000     4.281000000    -2.274000000
H    -2.397000000     4.226000000    -2.577000000
H    -1.808000000     6.021000000     0.491000000
C    -3.845000000     3.199000000     0.197000000
H    -4.257000000     3.467000000    -0.772000000
C    -4.342000000     2.099000000     0.935000000
C    -5.373000000     1.253000000     0.312000000
H    -6.036000000     1.930000000    -0.231000000
H    -5.936000000     0.812000000     1.138000000
C    -4.622000000     0.167000000    -0.455000000
C    -4.430000000     0.332000000    -1.822000000
H    -4.833000000     1.190000000    -2.354000000
C    -4.325000000    -1.056000000     0.146000000
C    -3.692000000    -2.043000000    -0.562000000
H    -3.334000000    -2.918000000    -0.027000000
C    -3.446000000    -1.893000000    -1.935000000
O    -2.851000000    -2.951000000    -2.600000000
C    -1.443000000    -2.717000000    -2.788000000
C    -0.539000000    -3.961000000    -2.463000000
C     0.629000000    -4.208000000    -3.197000000
H     0.764000000    -3.634000000    -4.110000000
C    -0.848000000    -4.756000000    -1.322000000
H    -1.834000000    -4.605000000    -0.890000000
O    -1.284000000    -2.315000000    -4.205000000
H    -1.272000000    -1.818000000    -2.178000000
C    -3.942000000    -0.730000000    -2.616000000
C    -3.720000000    -0.609000000    -4.136000000
H    -4.497000000     0.063000000    -4.505000000
H    -3.834000000    -1.564000000    -4.654000000
C    -2.296000000    -0.113000000    -4.340000000
C    -2.130000000     1.233000000    -4.445000000
H    -2.976000000     1.884000000    -4.242000000
C    -1.203000000    -0.964000000    -4.454000000
C    -0.030000000    -0.443000000    -4.909000000
H     0.792000000    -1.130000000    -5.091000000
C     0.219000000     0.939000000    -4.773000000
O     1.514000000     1.356000000    -4.721000000
C     2.112000000     1.631000000    -3.395000000
C     3.496000000     0.967000000    -3.323000000
C     3.885000000    -0.064000000    -4.166000000
H     3.190000000    -0.274000000    -4.975000000
C     4.215000000     1.284000000    -2.211000000
H     3.910000000     2.038000000    -1.489000000
O     2.074000000     3.102000000    -3.196000000
H     1.458000000     1.158000000    -2.648000000
C    -0.844000000     1.780000000    -4.511000000
C    -0.626000000     3.273000000    -4.417000000
H    -1.487000000     3.864000000    -4.735000000
H     0.180000000     3.582000000    -5.086000000
C    -0.324000000     3.787000000    -3.068000000
C     0.995000000     3.693000000    -2.551000000
C     1.206000000     4.103000000    -1.204000000
H     2.150000000     4.013000000    -0.673000000
C     0.179000000     4.609000000    -0.449000000
O     0.472000000     4.830000000     0.848000000
C     0.026000000     3.802000000     1.784000000
H    -0.025000000     2.835000000     1.261000000
C     1.139000000     3.545000000     2.818000000
C     0.794000000     3.173000000     4.153000000
H    -0.264000000     3.120000000     4.395000000
C     2.494000000     3.434000000     2.414000000
H     2.791000000     3.914000000     1.485000000
C     3.486000000     3.090000000     3.367000000
O     4.883000000     3.293000000     3.149000000
C     3.160000000     2.676000000     4.656000000
H     3.959000000     2.411000000     5.344000000
C     1.793000000     2.673000000     5.006000000
O     1.570000000     2.146000000     6.286000000
C     0.349000000     1.876000000     6.788000000
C    -0.223000000     0.613000000     6.591000000
H     0.343000000    -0.165000000     6.084000000
C    -0.369000000     2.905000000     7.414000000
H     0.133000000     3.868000000     7.462000000
C    -1.565000000     2.629000000     8.052000000
H    -2.094000000     3.441000000     8.546000000
C    -2.070000000     1.349000000     8.021000000
H    -3.046000000     1.111000000     8.436000000
C    -1.449000000     0.362000000     7.222000000
O    -2.114000000    -0.817000000     7.059000000
C    -2.231000000    -1.429000000     5.824000000
C    -2.033000000    -2.807000000     5.653000000
H    -1.734000000    -3.434000000     6.489000000
C    -2.169000000    -3.419000000     4.468000000
O    -1.914000000    -4.718000000     4.328000000
C    -2.032000000    -5.487000000     3.224000000
C    -0.992000000    -5.627000000     2.295000000
H    -0.035000000    -5.165000000     2.522000000
C    -3.281000000    -6.096000000     2.991000000
H    -4.015000000    -5.993000000     3.787000000
C    -3.465000000    -6.767000000     1.764000000
H    -4.376000000    -7.331000000     1.578000000
C    -2.395000000    -6.966000000     0.840000000
H    -2.498000000    -7.608000000    -0.031000000
C    -1.177000000    -6.308000000     1.111000000
O    -0.134000000    -6.461000000     0.310000000
C     0.058000000    -5.645000000    -0.788000000
C     1.244000000    -5.857000000    -1.579000000
H     1.949000000    -6.617000000    -1.252000000
C     1.561000000    -5.138000000    -2.705000000
O     2.695000000    -5.485000000    -3.449000000
C     3.149000000    -4.617000000    -4.420000000
C     4.154000000    -3.713000000    -4.127000000
H     4.444000000    -3.455000000    -3.112000000
C     2.699000000    -4.815000000    -5.738000000
H     1.918000000    -5.539000000    -5.958000000
C     3.217000000    -3.973000000    -6.673000000
H     2.953000000    -4.025000000    -7.727000000
C     4.225000000    -3.025000000    -6.394000000
H     4.605000000    -2.351000000    -7.159000000
C     4.655000000    -2.865000000    -5.078000000
O     5.400000000    -1.849000000    -4.656000000
C     5.016000000    -0.823000000    -3.823000000
C     5.777000000    -0.499000000    -2.706000000
H     6.671000000    -1.058000000    -2.443000000
C     5.359000000     0.601000000    -1.918000000
O     6.165000000     0.980000000    -0.880000000
C     6.058000000     2.173000000    -0.140000000
C     6.724000000     3.284000000    -0.600000000
H     7.292000000     3.117000000    -1.512000000
C     6.662000000     4.458000000     0.144000000
H     7.240000000     5.330000000    -0.149000000
C     6.059000000     4.501000000     1.411000000
H     6.216000000     5.408000000     1.989000000
C     5.507000000     3.284000000     1.926000000
C     5.479000000     2.156000000     1.139000000
H     4.934000000     1.318000000     1.565000000
C     1.124000000    -2.575000000     0.447000000
H     0.991000000    -3.648000000     0.561000000
C    -0.038000000    -1.801000000     0.397000000
H    -1.013000000    -2.272000000     0.300000000
C     0.032000000    -0.435000000     0.401000000
H    -0.979000000     0.145000000     0.514000000
C     1.220000000     0.162000000     0.588000000
H     1.296000000     1.242000000     0.684000000
C     2.449000000    -0.531000000     0.557000000
H     3.414000000    -0.036000000     0.629000000
C     2.435000000    -1.920000000     0.532000000
C     3.720000000    -2.742000000     0.536000000
O     4.842000000    -2.178000000     0.538000000
O     3.699000000    -3.950000000     0.790000000
O     1.476000000    -0.359000000     3.638000000
H     1.070000000    -0.179000000     2.790000000
H     2.058000000     0.386000000     3.788000000
O     4.876000000    -6.176000000    -0.623000000
H     4.694000000    -6.250000000    -1.559000000
H     4.579000000    -5.296000000    -0.390000000
O     9.260000000    -4.573000000     0.429000000
H    10.143000000    -4.204000000     0.400000000
H     9.327000000    -5.393000000    -0.061000000
O     2.839000000    -7.514000000     1.026000000
H     2.214000000    -6.994000000     1.530000000
H     3.612000000    -6.955000000     0.952000000
O     4.532000000    -3.615000000     4.580000000
H     3.690000000    -3.298000000     4.253000000
H     4.986000000    -3.936000000     3.800000000
O     1.543000000    -3.051000000     4.400000000
H     1.335000000    -2.158000000     4.125000000
H     1.630000000    -2.994000000     5.352000000
O     5.265000000    -1.316000000     6.178000000
H     4.963000000    -2.081000000     5.689000000
H     4.464000000    -0.842000000     6.400000000
O     6.723000000    -3.554000000    -0.874000000
H     5.954000000    -3.122000000    -0.502000000
H     7.414000000    -3.412000000    -0.227000000
O     7.325000000    -4.540000000     5.980000000
H     6.511000000    -4.575000000     5.477000000
H     7.771000000    -3.756000000     5.659000000
O     8.271000000     0.513000000     3.243000000
H     8.823000000     1.143000000     2.780000000
H     7.824000000     0.029000000     2.549000000
O     5.121000000    -7.812000000     3.402000000
H     4.911000000    -6.901000000     3.198000000
H     4.656000000    -8.320000000     2.737000000
O     2.356000000    -5.280000000     2.910000000
H     2.114000000    -4.529000000     3.452000000
H     2.914000000    -4.911000000     2.226000000
O    10.085000000    -1.505000000     1.811000000
H     9.617000000    -1.638000000     2.635000000
H     9.547000000    -0.878000000     1.329000000
O     7.611000000    -3.838000000    -3.331000000
H     7.179000000    -3.830000000    -2.477000000
H     8.057000000    -4.685000000    -3.365000000
O     7.891000000    -3.566000000     2.725000000
H     8.352000000    -3.851000000     1.937000000
H     7.532000000    -2.708000000     2.497000000
O     7.034000000    -0.993000000     1.062000000
H     6.215000000    -1.357000000     0.728000000
H     7.277000000    -0.323000000     0.422000000
O     6.787000000    -7.455000000     0.400000000
H     7.468000000    -7.212000000    -0.227000000
H     6.103000000    -6.796000000     0.278000000
O     1.787000000    -6.177000000     5.375000000
H     1.906000000    -6.117000000     4.427000000
H     2.662000000    -6.030000000     5.735000000
O     5.314000000    -5.160000000     2.426000000
H     6.232000000    -5.078000000     2.168000000
H     4.838000000    -4.622000000     1.794000000
