215
-1455.90507
C    -3.399000000    -3.758000000     2.044000000
H    -3.601000000    -3.963000000     0.996000000
C    -3.450000000    -2.548000000     2.643000000
C    -3.108000000    -2.490000000     4.008000000
H    -2.923000000    -1.484000000     4.376000000
C    -3.817000000    -1.276000000     1.809000000
O    -4.956000000    -1.522000000     0.917000000
H    -2.958000000    -1.048000000     1.160000000
O    -4.075000000    -0.198000000     2.697000000
C    -3.722000000     1.119000000     2.298000000
C    -2.679000000     1.810000000     3.002000000
H    -2.339000000     1.302000000     3.901000000
C    -2.219000000     3.083000000     2.671000000
O    -1.063000000     3.483000000     3.350000000
C    -2.761000000     3.705000000     1.514000000
C    -2.218000000     5.068000000     1.086000000
H    -3.038000000     5.600000000     0.599000000
C    -0.909000000     5.013000000     0.211000000
C    -1.094000000     5.013000000    -1.198000000
H    -2.122000000     4.977000000    -1.550000000
H    -2.017000000     5.531000000     2.054000000
C    -3.753000000     3.037000000     0.796000000
H    -4.110000000     3.386000000    -0.170000000
C    -4.339000000     1.796000000     1.221000000
C    -5.563000000     1.252000000     0.405000000
H    -6.049000000     2.085000000    -0.107000000
H    -6.275000000     0.562000000     0.863000000
C    -4.978000000     0.342000000    -0.655000000
C    -4.576000000     0.930000000    -1.875000000
H    -4.650000000     2.001000000    -2.046000000
C    -4.716000000    -1.029000000    -0.311000000
C    -4.043000000    -1.784000000    -1.166000000
H    -3.930000000    -2.848000000    -0.970000000
C    -3.630000000    -1.233000000    -2.377000000
O    -2.957000000    -2.075000000    -3.256000000
C    -1.506000000    -1.793000000    -3.374000000
C    -0.643000000    -3.053000000    -3.419000000
C     0.573000000    -3.094000000    -4.130000000
H     0.653000000    -2.317000000    -4.886000000
C    -0.900000000    -4.092000000    -2.523000000
H    -1.797000000    -4.131000000    -1.910000000
O    -1.246000000    -0.979000000    -4.445000000
H    -1.085000000    -1.228000000    -2.529000000
C    -3.919000000     0.097000000    -2.754000000
C    -3.547000000     0.646000000    -4.170000000
H    -4.272000000     1.401000000    -4.483000000
H    -3.575000000    -0.128000000    -4.940000000
C    -2.119000000     1.192000000    -4.174000000
C    -1.813000000     2.552000000    -3.910000000
H    -2.686000000     3.179000000    -3.747000000
C    -1.034000000     0.345000000    -4.369000000
C     0.289000000     0.805000000    -4.235000000
H     1.151000000     0.143000000    -4.224000000
C     0.568000000     2.168000000    -3.987000000
O     1.891000000     2.426000000    -3.845000000
C     2.332000000     2.626000000    -2.532000000
C     3.672000000     1.927000000    -2.260000000
C     4.052000000     0.737000000    -2.848000000
H     3.340000000     0.278000000    -3.528000000
C     4.538000000     2.504000000    -1.306000000
H     4.212000000     3.408000000    -0.796000000
O     2.274000000     4.077000000    -2.276000000
H     1.637000000     2.096000000    -1.863000000
C    -0.509000000     3.073000000    -3.871000000
C    -0.257000000     4.518000000    -3.527000000
H    -0.998000000     5.162000000    -4.006000000
H     0.676000000     4.739000000    -4.049000000
C    -0.029000000     4.809000000    -2.071000000
C     1.211000000     4.533000000    -1.536000000
C     1.428000000     4.558000000    -0.154000000
H     2.440000000     4.411000000     0.216000000
C     0.402000000     4.813000000     0.687000000
O     0.629000000     4.552000000     2.078000000
C     0.174000000     3.289000000     2.633000000
H    -0.144000000     2.603000000     1.833000000
C     1.189000000     2.572000000     3.533000000
C     0.754000000     1.529000000     4.324000000
H    -0.302000000     1.271000000     4.342000000
C     2.565000000     2.900000000     3.536000000
H     3.014000000     3.656000000     2.896000000
C     3.496000000     2.093000000     4.199000000
O     4.854000000     2.411000000     4.090000000
C     3.029000000     1.024000000     4.967000000
H     3.747000000     0.364000000     5.447000000
C     1.684000000     0.766000000     5.080000000
O     1.263000000    -0.454000000     5.636000000
C     0.079000000    -0.795000000     6.248000000
C    -0.508000000    -2.011000000     5.910000000
H    -0.023000000    -2.601000000     5.136000000
C    -0.446000000    -0.004000000     7.234000000
H     0.122000000     0.842000000     7.611000000
C    -1.603000000    -0.481000000     7.858000000
H    -2.012000000     0.092000000     8.686000000
C    -2.167000000    -1.679000000     7.566000000
H    -2.980000000    -2.071000000     8.172000000
C    -1.647000000    -2.453000000     6.531000000
O    -2.319000000    -3.594000000     6.024000000
C    -2.749000000    -3.676000000     4.731000000
C    -3.027000000    -4.927000000     4.152000000
H    -2.923000000    -5.856000000     4.707000000
C    -3.211000000    -4.959000000     2.807000000
O    -3.430000000    -6.222000000     2.178000000
C    -3.176000000    -6.469000000     0.901000000
C    -1.908000000    -6.148000000     0.418000000
H    -1.188000000    -5.772000000     1.140000000
C    -4.079000000    -7.078000000     0.030000000
H    -5.059000000    -7.403000000     0.371000000
C    -3.758000000    -7.267000000    -1.331000000
H    -4.601000000    -7.603000000    -1.929000000
C    -2.476000000    -6.965000000    -1.775000000
H    -2.281000000    -7.109000000    -2.835000000
C    -1.479000000    -6.441000000    -0.886000000
O    -0.210000000    -6.144000000    -1.296000000
C     0.000000000    -5.120000000    -2.252000000
C     1.188000000    -5.167000000    -3.016000000
H     1.953000000    -5.915000000    -2.823000000
C     1.506000000    -4.092000000    -3.947000000
O     2.627000000    -4.242000000    -4.751000000
C     3.490000000    -3.202000000    -5.006000000
C     4.116000000    -2.580000000    -3.924000000
H     3.958000000    -2.935000000    -2.909000000
C     3.783000000    -2.820000000    -6.330000000
H     3.451000000    -3.433000000    -7.164000000
C     4.684000000    -1.799000000    -6.567000000
H     5.041000000    -1.569000000    -7.568000000
C     5.235000000    -1.123000000    -5.474000000
H     5.889000000    -0.279000000    -5.679000000
C     5.004000000    -1.526000000    -4.194000000
O     5.713000000    -1.029000000    -3.147000000
C     5.313000000     0.164000000    -2.563000000
C     6.190000000     0.866000000    -1.774000000
H     7.165000000     0.448000000    -1.537000000
C     5.802000000     2.003000000    -1.145000000
O     6.648000000     2.604000000    -0.222000000
C     6.118000000     3.232000000     0.919000000
C     6.585000000     4.566000000     1.088000000
H     7.160000000     5.078000000     0.320000000
C     6.587000000     5.098000000     2.397000000
H     7.011000000     6.088000000     2.539000000
C     5.908000000     4.423000000     3.402000000
H     5.750000000     4.923000000     4.355000000
C     5.450000000     3.169000000     3.146000000
C     5.413000000     2.600000000     1.879000000
H     5.067000000     1.571000000     1.825000000
C     0.403000000    -1.485000000     1.650000000
H     0.240000000    -1.667000000     2.709000000
C    -0.173000000    -0.373000000     1.044000000
H    -0.901000000     0.258000000     1.547000000
C     0.038000000    -0.075000000    -0.321000000
H    -0.403000000     0.807000000    -0.772000000
C     0.969000000    -0.800000000    -1.053000000
H     1.075000000    -0.522000000    -2.098000000
C     1.681000000    -1.808000000    -0.440000000
H     2.425000000    -2.366000000    -1.003000000
C     1.404000000    -2.112000000     0.897000000
C     2.172000000    -3.182000000     1.595000000
O     3.182000000    -3.623000000     1.166000000
O     1.853000000    -3.702000000     2.614000000
O     2.277000000    -3.036000000     7.751000000
H     2.468000000    -2.430000000     7.034000000
H     2.350000000    -3.905000000     7.356000000
O     2.132000000    -8.624000000     4.574000000
H     1.429000000    -8.617000000     5.224000000
H     2.681000000    -7.874000000     4.806000000
O     4.875000000    -1.309000000     0.894000000
H     4.463000000    -0.445000000     0.893000000
H     4.149000000    -1.921000000     1.012000000
O     0.669000000    -5.446000000     5.279000000
H     1.251000000    -4.691000000     5.187000000
H     0.549000000    -5.765000000     4.385000000
O     2.207000000    -7.478000000     0.074000000
H     2.473000000    -8.168000000     0.683000000
H     1.616000000    -7.916000000    -0.540000000
O     0.664000000    -6.408000000     2.538000000
H     0.993000000    -5.512000000     2.468000000
H     0.990000000    -6.845000000     1.751000000
O     4.005000000    -5.415000000    -0.725000000
H     3.745000000    -4.721000000    -0.119000000
H     3.236000000    -5.982000000    -0.784000000
O     3.840000000    -6.473000000     5.046000000
H     4.036000000    -6.463000000     4.109000000
H     3.434000000    -5.623000000     5.215000000
O     7.804000000    -2.462000000     1.084000000
H     6.856000000    -2.329000000     1.058000000
H     8.106000000    -1.893000000     1.791000000
O     6.788000000    -4.726000000    -0.293000000
H     6.055000000    -5.033000000     0.241000000
H     7.422000000    -4.391000000     0.341000000
O     3.225000000    -3.839000000     4.922000000
H     2.690000000    -3.936000000     4.134000000
H     3.906000000    -3.213000000     4.673000000
O     7.575000000    -3.179000000    -2.585000000
H     6.816000000    -2.758000000    -2.988000000
H     7.206000000    -3.723000000    -1.890000000
O     5.364000000    -2.385000000     4.093000000
H     6.035000000    -3.054000000     4.230000000
H     5.804000000    -1.706000000     3.580000000
O     2.924000000     0.777000000     1.234000000
H     2.098000000     0.320000000     1.074000000
H     2.912000000     0.972000000     2.171000000
O    -0.863000000    -8.641000000     3.473000000
H    -0.448000000    -8.846000000     4.311000000
H    -0.347000000    -7.915000000     3.121000000
O     2.758000000    -9.362000000     1.969000000
H     2.508000000    -9.018000000     2.826000000
H     3.151000000   -10.214000000     2.158000000
O     5.383000000    -6.372000000    -2.730000000
H     6.263000000    -6.572000000    -2.413000000
H     4.940000000    -5.983000000    -1.976000000
O     7.148000000    -4.765000000     3.983000000
H     8.012000000    -4.744000000     3.572000000
H     6.638000000    -5.364000000     3.437000000
O     4.292000000    -5.862000000     2.369000000
H     3.972000000    -6.377000000     1.628000000
H     4.058000000    -4.959000000     2.152000000
