215
-1441.56050
C    -3.152000000    -3.630000000     1.875000000
H    -3.490000000    -3.856000000     0.867000000
C    -3.219000000    -2.309000000     2.213000000
C    -3.025000000    -1.988000000     3.574000000
H    -3.148000000    -0.938000000     3.828000000
C    -3.859000000    -1.285000000     1.251000000
O    -4.757000000    -1.814000000     0.260000000
H    -2.971000000    -0.882000000     0.741000000
O    -4.514000000    -0.174000000     1.922000000
C    -4.278000000     1.145000000     1.525000000
C    -3.493000000     1.853000000     2.427000000
H    -3.149000000     1.304000000     3.300000000
C    -3.052000000     3.118000000     2.072000000
O    -2.009000000     3.667000000     2.835000000
C    -3.444000000     3.689000000     0.873000000
C    -2.982000000     5.038000000     0.409000000
H    -3.675000000     5.467000000    -0.318000000
C    -1.587000000     4.982000000    -0.248000000
C    -1.518000000     4.683000000    -1.591000000
H    -2.420000000     4.571000000    -2.186000000
H    -2.839000000     5.686000000     1.276000000
C    -4.299000000     2.973000000    -0.003000000
H    -4.707000000     3.447000000    -0.892000000
C    -4.650000000     1.702000000     0.318000000
C    -5.521000000     0.860000000    -0.592000000
H    -6.169000000     1.504000000    -1.190000000
H    -6.162000000     0.321000000     0.109000000
C    -4.785000000    -0.120000000    -1.475000000
C    -4.378000000     0.348000000    -2.717000000
H    -4.512000000     1.415000000    -2.880000000
C    -4.508000000    -1.401000000    -1.047000000
C    -3.767000000    -2.180000000    -1.865000000
H    -3.440000000    -3.111000000    -1.409000000
C    -3.357000000    -1.787000000    -3.120000000
O    -2.533000000    -2.663000000    -3.798000000
C    -1.126000000    -2.247000000    -3.568000000
C    -0.270000000    -3.564000000    -3.537000000
C     0.899000000    -3.616000000    -4.300000000
H     1.164000000    -2.918000000    -5.090000000
C    -0.555000000    -4.516000000    -2.630000000
H    -1.439000000    -4.482000000    -1.997000000
O    -0.657000000    -1.474000000    -4.676000000
H    -0.980000000    -1.818000000    -2.566000000
C    -3.692000000    -0.551000000    -3.587000000
C    -3.082000000     0.112000000    -4.831000000
H    -3.749000000     0.913000000    -5.157000000
H    -3.052000000    -0.603000000    -5.656000000
C    -1.728000000     0.724000000    -4.514000000
C    -1.620000000     2.115000000    -4.242000000
H    -2.495000000     2.754000000    -4.161000000
C    -0.586000000    -0.073000000    -4.548000000
C     0.623000000     0.488000000    -4.262000000
H     1.443000000    -0.220000000    -4.179000000
C     0.794000000     1.900000000    -4.057000000
O     2.060000000     2.388000000    -3.618000000
C     2.320000000     2.630000000    -2.211000000
C     3.664000000     2.051000000    -1.758000000
C     3.910000000     0.664000000    -1.998000000
H     3.211000000     0.179000000    -2.675000000
C     4.530000000     2.662000000    -0.888000000
H     4.361000000     3.684000000    -0.559000000
O     2.131000000     4.005000000    -1.933000000
H     1.571000000     2.049000000    -1.652000000
C    -0.335000000     2.725000000    -4.047000000
C    -0.262000000     4.166000000    -3.698000000
H    -1.086000000     4.644000000    -4.232000000
H     0.651000000     4.546000000    -4.160000000
C    -0.285000000     4.384000000    -2.221000000
C     0.924000000     4.487000000    -1.501000000
C     0.831000000     4.745000000    -0.124000000
H     1.694000000     4.601000000     0.521000000
C    -0.378000000     4.933000000     0.472000000
O    -0.307000000     4.956000000     1.807000000
C    -0.679000000     3.661000000     2.284000000
H    -0.550000000     2.910000000     1.491000000
C     0.274000000     3.149000000     3.269000000
C     0.089000000     1.962000000     4.003000000
H    -0.850000000     1.417000000     3.942000000
C     1.545000000     3.676000000     3.325000000
H     1.796000000     4.646000000     2.904000000
C     2.589000000     3.144000000     3.995000000
O     3.693000000     3.934000000     4.198000000
C     2.465000000     2.008000000     4.722000000
H     3.258000000     1.686000000     5.392000000
C     1.160000000     1.491000000     4.778000000
O     0.993000000     0.444000000     5.688000000
C    -0.183000000     0.063000000     6.241000000
C    -0.843000000    -1.025000000     5.699000000
H    -0.356000000    -1.572000000     4.896000000
C    -0.668000000     0.686000000     7.361000000
H    -0.036000000     1.417000000     7.859000000
C    -1.855000000     0.251000000     7.999000000
H    -2.166000000     0.591000000     8.983000000
C    -2.524000000    -0.832000000     7.398000000
H    -3.313000000    -1.302000000     7.980000000
C    -2.001000000    -1.521000000     6.299000000
O    -2.698000000    -2.632000000     5.865000000
C    -2.807000000    -2.924000000     4.525000000
C    -2.663000000    -4.289000000     4.135000000
H    -2.434000000    -5.096000000     4.826000000
C    -2.814000000    -4.656000000     2.762000000
O    -2.623000000    -5.963000000     2.402000000
C    -2.359000000    -6.408000000     1.100000000
C    -1.234000000    -5.993000000     0.481000000
H    -0.673000000    -5.140000000     0.854000000
C    -3.175000000    -7.439000000     0.667000000
H    -3.994000000    -7.703000000     1.332000000
C    -2.951000000    -8.019000000    -0.575000000
H    -3.774000000    -8.584000000    -1.003000000
C    -1.794000000    -7.649000000    -1.235000000
H    -1.673000000    -8.050000000    -2.239000000
C    -0.943000000    -6.680000000    -0.689000000
O     0.210000000    -6.405000000    -1.351000000
C     0.365000000    -5.542000000    -2.352000000
C     1.595000000    -5.575000000    -3.080000000
H     2.369000000    -6.291000000    -2.816000000
C     1.866000000    -4.601000000    -4.000000000
O     3.087000000    -4.571000000    -4.708000000
C     3.925000000    -3.481000000    -4.539000000
C     4.134000000    -2.954000000    -3.251000000
H     3.516000000    -3.364000000    -2.456000000
C     4.616000000    -2.858000000    -5.604000000
H     4.502000000    -3.096000000    -6.659000000
C     5.558000000    -1.784000000    -5.393000000
H     6.123000000    -1.290000000    -6.179000000
C     5.728000000    -1.330000000    -4.118000000
H     6.432000000    -0.518000000    -3.958000000
C     4.995000000    -1.876000000    -3.053000000
O     5.273000000    -1.373000000    -1.773000000
C     5.103000000     0.011000000    -1.546000000
C     5.828000000     0.664000000    -0.622000000
H     6.562000000     0.131000000    -0.023000000
C     5.601000000     1.998000000    -0.279000000
O     6.527000000     2.636000000     0.581000000
C     6.351000000     3.118000000     1.786000000
C     7.424000000     3.911000000     2.266000000
H     8.359000000     3.946000000     1.713000000
C     7.123000000     4.891000000     3.183000000
H     7.970000000     5.379000000     3.659000000
C     5.848000000     4.888000000     3.726000000
H     5.688000000     5.438000000     4.650000000
C     4.882000000     3.906000000     3.437000000
C     5.141000000     3.015000000     2.406000000
H     4.379000000     2.283000000     2.150000000
C     0.218000000    -1.822000000     1.883000000
H     0.091000000    -2.197000000     2.895000000
C    -0.296000000    -0.656000000     1.333000000
H    -1.011000000    -0.073000000     1.908000000
C     0.052000000    -0.226000000     0.065000000
H    -0.549000000     0.579000000    -0.316000000
C     0.923000000    -1.007000000    -0.669000000
H     1.083000000    -0.753000000    -1.713000000
C     1.494000000    -2.122000000    -0.186000000
H     2.241000000    -2.593000000    -0.821000000
C     1.139000000    -2.557000000     1.121000000
C     1.802000000    -3.757000000     1.711000000
O     2.818000000    -4.192000000     1.170000000
O     1.348000000    -4.253000000     2.723000000
O     3.146000000    -1.422000000     6.384000000
H     3.269000000    -2.280000000     5.978000000
H     2.609000000    -0.936000000     5.759000000
O     1.494000000    -9.738000000     3.058000000
H     1.567000000    -8.789000000     2.960000000
H     2.346000000   -10.010000000     3.400000000
O     4.965000000    -2.655000000     1.212000000
H     5.078000000    -2.395000000     0.298000000
H     4.113000000    -3.090000000     1.234000000
O     0.817000000    -5.398000000     5.176000000
H     0.887000000    -4.813000000     4.422000000
H     0.035000000    -5.921000000     5.001000000
O    -1.297000000    -7.521000000     4.494000000
H    -1.369000000    -8.074000000     5.271000000
H    -0.859000000    -8.074000000     3.846000000
O     1.515000000    -7.032000000     2.171000000
H     1.072000000    -6.201000000     2.343000000
H     2.238000000    -6.802000000     1.587000000
O     5.929000000    -3.139000000     6.106000000
H     5.296000000    -3.857000000     6.087000000
H     6.246000000    -3.076000000     5.205000000
O     4.873000000    -4.546000000    -0.778000000
H     4.057000000    -4.610000000    -0.281000000
H     5.518000000    -5.003000000    -0.238000000
O     1.839000000    -5.715000000     7.819000000
H     1.587000000    -5.611000000     6.901000000
H     1.211000000    -5.178000000     8.302000000
O     3.925000000    -6.721000000     4.670000000
H     3.985000000    -6.379000000     3.778000000
H     3.055000000    -7.118000000     4.716000000
O     3.377000000    -3.381000000     4.309000000
H     2.686000000    -3.825000000     3.817000000
H     4.187000000    -3.630000000     3.863000000
O     4.425000000    -5.746000000     7.078000000
H     4.328000000    -5.993000000     6.159000000
H     3.529000000    -5.610000000     7.386000000
O     4.897000000    -0.102000000     3.012000000
H     5.663000000    -0.428000000     2.540000000
H     4.256000000     0.086000000     2.326000000
O     6.839000000    -5.616000000     0.771000000
H     7.524000000    -5.414000000     1.409000000
H     7.262000000    -6.204000000     0.144000000
O     2.648000000     0.373000000     1.534000000
H     2.502000000     0.131000000     0.620000000
H     1.769000000     0.481000000     1.897000000
O     5.359000000    -8.814000000     1.966000000
H     6.296000000    -8.655000000     1.855000000
H     4.966000000    -7.942000000     1.961000000
O     6.057000000    -5.731000000    -3.063000000
H     6.956000000    -5.402000000    -3.066000000
H     5.603000000    -5.181000000    -2.424000000
O     6.510000000    -3.506000000     3.307000000
H     7.333000000    -3.955000000     3.116000000
H     6.064000000    -3.452000000     2.462000000
O     4.527000000    -5.981000000     2.125000000
H     5.401000000    -5.687000000     1.870000000
H     3.936000000    -5.330000000     1.747000000
