215
-1461.27614
C    -3.187000000    -3.470000000     2.987000000
H    -3.814000000    -3.650000000     2.118000000
C    -3.062000000    -2.125000000     3.296000000
C    -2.283000000    -1.788000000     4.442000000
H    -1.981000000    -0.759000000     4.625000000
C    -3.456000000    -1.031000000     2.325000000
O    -4.506000000    -1.494000000     1.474000000
H    -2.547000000    -0.789000000     1.754000000
O    -3.937000000     0.082000000     3.093000000
C    -3.650000000     1.272000000     2.580000000
C    -2.544000000     1.937000000     3.118000000
H    -1.992000000     1.441000000     3.913000000
C    -2.142000000     3.086000000     2.519000000
O    -0.983000000     3.601000000     3.141000000
C    -2.833000000     3.616000000     1.408000000
C    -2.345000000     4.801000000     0.691000000
H    -3.155000000     5.376000000     0.237000000
C    -1.143000000     4.584000000    -0.253000000
C    -1.371000000     4.543000000    -1.567000000
H    -2.355000000     4.625000000    -2.022000000
H    -2.064000000     5.435000000     1.534000000
C    -3.966000000     2.972000000     0.914000000
H    -4.649000000     3.429000000     0.202000000
C    -4.327000000     1.751000000     1.424000000
C    -5.487000000     0.980000000     0.785000000
H    -6.274000000     1.635000000     0.407000000
H    -5.921000000     0.329000000     1.546000000
C    -5.007000000     0.029000000    -0.313000000
C    -4.763000000     0.453000000    -1.612000000
H    -5.017000000     1.462000000    -1.928000000
C    -4.482000000    -1.185000000     0.117000000
C    -3.781000000    -2.024000000    -0.752000000
H    -3.379000000    -2.941000000    -0.327000000
C    -3.680000000    -1.658000000    -2.128000000
O    -2.938000000    -2.507000000    -2.923000000
C    -1.553000000    -2.194000000    -3.180000000
C    -0.692000000    -3.439000000    -2.843000000
C     0.592000000    -3.443000000    -3.435000000
H     0.762000000    -2.728000000    -4.237000000
C    -0.990000000    -4.356000000    -1.887000000
H    -1.943000000    -4.274000000    -1.370000000
O    -1.387000000    -1.651000000    -4.549000000
H    -1.213000000    -1.488000000    -2.407000000
C    -4.159000000    -0.445000000    -2.523000000
C    -3.925000000    -0.063000000    -4.015000000
H    -4.598000000     0.757000000    -4.272000000
H    -4.150000000    -0.868000000    -4.717000000
C    -2.521000000     0.477000000    -4.079000000
C    -2.341000000     1.862000000    -3.926000000
H    -3.149000000     2.573000000    -3.771000000
C    -1.412000000    -0.247000000    -4.540000000
C    -0.166000000     0.276000000    -4.744000000
H     0.723000000    -0.321000000    -4.933000000
C     0.045000000     1.549000000    -4.431000000
O     1.352000000     1.968000000    -4.491000000
C     2.008000000     2.157000000    -3.177000000
C     3.334000000     1.471000000    -3.088000000
C     3.836000000     0.683000000    -4.120000000
H     3.211000000     0.461000000    -4.980000000
C     4.064000000     1.742000000    -1.933000000
H     3.637000000     2.388000000    -1.170000000
O     1.975000000     3.535000000    -2.878000000
H     1.490000000     1.696000000    -2.323000000
C    -1.051000000     2.416000000    -4.119000000
C    -0.847000000     3.929000000    -3.909000000
H    -1.577000000     4.671000000    -4.236000000
H     0.070000000     4.169000000    -4.451000000
C    -0.389000000     4.137000000    -2.477000000
C     0.948000000     3.909000000    -2.049000000
C     1.239000000     4.144000000    -0.703000000
H     2.285000000     4.104000000    -0.413000000
C     0.192000000     4.426000000     0.202000000
O     0.474000000     4.486000000     1.546000000
C     0.252000000     3.333000000     2.382000000
H     0.083000000     2.495000000     1.688000000
C     1.456000000     3.122000000     3.320000000
C     1.215000000     2.558000000     4.533000000
H     0.206000000     2.211000000     4.743000000
C     2.770000000     3.426000000     2.964000000
H     2.997000000     3.873000000     1.999000000
C     3.816000000     3.197000000     3.838000000
O     5.139000000     3.409000000     3.542000000
C     3.521000000     2.607000000     5.041000000
H     4.344000000     2.539000000     5.748000000
C     2.251000000     2.290000000     5.374000000
O     2.075000000     1.522000000     6.510000000
C     0.946000000     0.798000000     6.747000000
C     0.644000000    -0.445000000     6.190000000
H     1.308000000    -0.833000000     5.422000000
C     0.134000000     1.294000000     7.824000000
H     0.311000000     2.232000000     8.344000000
C    -0.896000000     0.556000000     8.280000000
H    -1.531000000     0.869000000     9.105000000
C    -1.241000000    -0.640000000     7.687000000
H    -2.136000000    -1.200000000     7.948000000
C    -0.430000000    -1.189000000     6.643000000
O    -0.753000000    -2.453000000     6.180000000
C    -1.667000000    -2.795000000     5.196000000
C    -1.854000000    -4.135000000     4.900000000
H    -1.363000000    -4.906000000     5.487000000
C    -2.653000000    -4.464000000     3.782000000
O    -2.828000000    -5.833000000     3.463000000
C    -2.785000000    -6.227000000     2.162000000
C    -1.590000000    -6.086000000     1.440000000
H    -0.648000000    -5.923000000     1.956000000
C    -3.971000000    -6.525000000     1.473000000
H    -4.908000000    -6.503000000     2.025000000
C    -4.002000000    -6.836000000     0.096000000
H    -4.892000000    -7.129000000    -0.456000000
C    -2.846000000    -6.676000000    -0.599000000
H    -2.887000000    -6.739000000    -1.683000000
C    -1.610000000    -6.362000000     0.055000000
O    -0.433000000    -6.377000000    -0.703000000
C    -0.142000000    -5.391000000    -1.619000000
C     1.129000000    -5.391000000    -2.218000000
H     1.894000000    -6.096000000    -1.902000000
C     1.522000000    -4.408000000    -3.194000000
O     2.686000000    -4.582000000    -3.894000000
C     3.220000000    -3.659000000    -4.730000000
C     4.209000000    -2.785000000    -4.211000000
H     4.413000000    -2.824000000    -3.144000000
C     2.991000000    -3.650000000    -6.074000000
H     2.260000000    -4.311000000    -6.534000000
C     3.660000000    -2.813000000    -6.938000000
H     3.580000000    -2.893000000    -8.019000000
C     4.566000000    -1.910000000    -6.478000000
H     4.929000000    -1.095000000    -7.099000000
C     4.753000000    -1.895000000    -5.090000000
O     5.612000000    -0.924000000    -4.617000000
C     5.083000000     0.120000000    -3.914000000
C     5.794000000     0.350000000    -2.767000000
H     6.729000000    -0.187000000    -2.622000000
C     5.295000000     1.144000000    -1.738000000
O     6.118000000     1.477000000    -0.667000000
C     6.022000000     2.572000000     0.126000000
C     6.238000000     3.803000000    -0.390000000
H     6.401000000     3.892000000    -1.461000000
C     6.146000000     4.961000000     0.428000000
H     6.191000000     6.004000000     0.125000000
C     5.755000000     4.850000000     1.768000000
H     5.633000000     5.684000000     2.454000000
C     5.550000000     3.576000000     2.253000000
C     5.587000000     2.439000000     1.462000000
H     5.489000000     1.437000000     1.872000000
C     0.696000000    -1.518000000     1.778000000
H     0.585000000    -1.650000000     2.851000000
C     0.120000000    -0.374000000     1.193000000
H    -0.505000000     0.339000000     1.726000000
C     0.351000000    -0.185000000    -0.192000000
H    -0.200000000     0.614000000    -0.720000000
C     1.144000000    -1.094000000    -0.880000000
H     1.294000000    -0.923000000    -1.943000000
C     1.648000000    -2.266000000    -0.248000000
H     2.365000000    -2.894000000    -0.770000000
C     1.324000000    -2.548000000     1.068000000
C     1.715000000    -3.819000000     1.761000000
O     2.449000000    -4.663000000     1.285000000
O     1.498000000    -4.055000000     2.990000000
O     3.257000000    -2.344000000     7.912000000
H     4.014000000    -2.915000000     7.777000000
H     2.632000000    -2.611000000     7.238000000
O     6.037000000    -3.292000000     1.984000000
H     6.662000000    -4.002000000     1.841000000
H     5.188000000    -3.669000000     1.752000000
O    -0.073000000    -6.122000000     7.063000000
H     0.479000000    -6.540000000     6.402000000
H     0.375000000    -5.299000000     7.263000000
O     1.444000000    -7.088000000     1.190000000
H     0.977000000    -7.290000000     0.379000000
H     1.710000000    -6.174000000     1.092000000
O     5.185000000    -0.316000000     6.009000000
H     4.792000000    -0.535000000     5.164000000
H     4.586000000    -0.689000000     6.656000000
O     0.843000000    -6.448000000     4.263000000
H     1.117000000    -5.560000000     4.035000000
H     1.208000000    -6.997000000     3.568000000
O     4.707000000    -4.695000000    -0.381000000
H     3.871000000    -4.413000000    -0.011000000
H     4.692000000    -5.650000000    -0.307000000
O     4.847000000    -4.050000000     4.883000000
H     4.580000000    -4.514000000     4.089000000
H     5.745000000    -3.769000000     4.706000000
O     7.785000000    -1.019000000     2.992000000
H     6.860000000    -1.197000000     2.818000000
H     8.238000000    -1.815000000     2.713000000
O     4.344000000    -7.331000000     0.026000000
H     3.657000000    -7.786000000    -0.461000000
H     4.512000000    -7.891000000     0.783000000
O     2.195000000    -3.141000000     5.384000000
H     1.729000000    -3.550000000     4.655000000
H     3.016000000    -3.629000000     5.448000000
O     4.992000000    -4.265000000     7.379000000
H     4.958000000    -4.275000000     6.422000000
H     5.111000000    -5.182000000     7.624000000
O     6.590000000    -3.986000000    -2.115000000
H     6.047000000    -4.190000000    -1.354000000
H     6.156000000    -4.429000000    -2.844000000
O     3.838000000    -1.389000000     3.636000000
H     4.492000000    -2.086000000     3.580000000
H     3.002000000    -1.832000000     3.490000000
O    -1.444000000    -8.166000000     4.230000000
H    -0.675000000    -7.687000000     4.536000000
H    -1.986000000    -7.503000000     3.803000000
O     3.785000000    -8.066000000     4.276000000
H     3.538000000    -8.802000000     4.836000000
H     4.025000000    -8.469000000     3.442000000
O     2.014000000    -9.672000000     2.229000000
H     2.088000000    -8.774000000     1.905000000
H     1.088000000    -9.772000000     2.450000000
O     7.904000000    -5.144000000     2.951000000
H     7.849000000    -4.343000000     3.473000000
H     7.297000000    -5.749000000     3.376000000
O     4.346000000    -5.627000000     2.828000000
H     4.067000000    -6.373000000     3.359000000
H     3.719000000    -5.598000000     2.106000000
