215
-1460.53361
C    -2.749000000    -4.135000000     2.737000000
H    -3.421000000    -4.418000000     1.931000000
C    -2.531000000    -2.766000000     3.007000000
C    -1.582000000    -2.491000000     3.981000000
H    -1.439000000    -1.424000000     4.136000000
C    -3.220000000    -1.619000000     2.166000000
O    -4.318000000    -2.145000000     1.377000000
H    -2.456000000    -1.275000000     1.453000000
O    -3.755000000    -0.687000000     3.043000000
C    -3.688000000     0.679000000     2.686000000
C    -2.580000000     1.444000000     3.270000000
H    -2.039000000     0.954000000     4.076000000
C    -2.344000000     2.774000000     2.787000000
O    -1.271000000     3.382000000     3.296000000
C    -3.094000000     3.311000000     1.741000000
C    -2.946000000     4.697000000     1.140000000
H    -3.884000000     5.021000000     0.683000000
C    -1.722000000     4.699000000     0.177000000
C    -1.980000000     4.456000000    -1.192000000
H    -3.031000000     4.318000000    -1.432000000
H    -2.680000000     5.365000000     1.962000000
C    -3.992000000     2.408000000     1.102000000
H    -4.601000000     2.774000000     0.280000000
C    -4.352000000     1.156000000     1.557000000
C    -5.491000000     0.425000000     0.855000000
H    -6.219000000     1.109000000     0.416000000
H    -6.014000000    -0.121000000     1.644000000
C    -4.948000000    -0.452000000    -0.261000000
C    -4.881000000    -0.022000000    -1.561000000
H    -5.320000000     0.960000000    -1.716000000
C    -4.388000000    -1.709000000     0.038000000
C    -3.764000000    -2.500000000    -0.928000000
H    -3.229000000    -3.412000000    -0.678000000
C    -3.638000000    -2.020000000    -2.227000000
O    -2.845000000    -2.772000000    -3.076000000
C    -1.528000000    -2.360000000    -3.156000000
C    -0.493000000    -3.447000000    -3.149000000
C     0.641000000    -3.390000000    -3.891000000
H     0.800000000    -2.552000000    -4.565000000
C    -0.728000000    -4.497000000    -2.318000000
H    -1.677000000    -4.588000000    -1.796000000
O    -1.389000000    -1.531000000    -4.346000000
H    -1.306000000    -1.749000000    -2.268000000
C    -4.191000000    -0.760000000    -2.602000000
C    -3.946000000    -0.117000000    -3.934000000
H    -4.737000000     0.609000000    -4.131000000
H    -4.045000000    -0.826000000    -4.759000000
C    -2.623000000     0.559000000    -4.020000000
C    -2.508000000     1.931000000    -3.781000000
H    -3.407000000     2.511000000    -3.588000000
C    -1.465000000    -0.177000000    -4.335000000
C    -0.237000000     0.478000000    -4.378000000
H     0.681000000    -0.099000000    -4.464000000
C    -0.156000000     1.813000000    -4.201000000
O     1.061000000     2.409000000    -4.119000000
C     1.580000000     2.585000000    -2.742000000
C     2.969000000     2.109000000    -2.519000000
C     3.501000000     1.050000000    -3.244000000
H     2.873000000     0.437000000    -3.886000000
C     3.770000000     2.726000000    -1.597000000
H     3.420000000     3.522000000    -0.944000000
O     1.341000000     3.936000000    -2.369000000
H     0.968000000     1.880000000    -2.160000000
C    -1.339000000     2.585000000    -3.895000000
C    -1.242000000     4.013000000    -3.470000000
H    -2.125000000     4.605000000    -3.720000000
H    -0.462000000     4.509000000    -4.052000000
C    -0.903000000     4.159000000    -2.012000000
C     0.404000000     4.227000000    -1.545000000
C     0.731000000     4.558000000    -0.220000000
H     1.776000000     4.678000000     0.051000000
C    -0.373000000     4.831000000     0.595000000
O    -0.065000000     4.735000000     1.889000000
C    -0.021000000     3.464000000     2.572000000
H    -0.064000000     2.654000000     1.829000000
C     1.181000000     3.250000000     3.493000000
C     1.176000000     2.186000000     4.355000000
H     0.236000000     1.643000000     4.419000000
C     2.413000000     3.894000000     3.271000000
H     2.579000000     4.691000000     2.550000000
C     3.548000000     3.593000000     4.008000000
O     4.718000000     4.232000000     3.786000000
C     3.564000000     2.484000000     4.875000000
H     4.450000000     2.033000000     5.315000000
C     2.355000000     1.796000000     4.979000000
O     2.356000000     0.751000000     5.908000000
C     1.242000000     0.051000000     6.301000000
C     1.107000000    -1.261000000     5.948000000
H     1.856000000    -1.767000000     5.344000000
C     0.289000000     0.679000000     7.117000000
H     0.408000000     1.677000000     7.530000000
C    -0.827000000    -0.035000000     7.436000000
H    -1.616000000     0.436000000     8.015000000
C    -0.944000000    -1.338000000     7.061000000
H    -1.878000000    -1.860000000     7.248000000
C     0.040000000    -1.975000000     6.370000000
O    -0.128000000    -3.234000000     5.811000000
C    -0.955000000    -3.457000000     4.738000000
C    -1.087000000    -4.786000000     4.387000000
H    -0.480000000    -5.543000000     4.877000000
C    -1.983000000    -5.170000000     3.355000000
O    -2.219000000    -6.489000000     2.986000000
C    -2.205000000    -6.787000000     1.649000000
C    -1.046000000    -6.436000000     0.872000000
H    -0.156000000    -6.063000000     1.372000000
C    -3.290000000    -7.433000000     0.978000000
H    -4.116000000    -7.811000000     1.574000000
C    -3.296000000    -7.682000000    -0.359000000
H    -4.104000000    -8.102000000    -0.954000000
C    -2.142000000    -7.328000000    -1.059000000
H    -2.186000000    -7.581000000    -2.115000000
C    -1.027000000    -6.708000000    -0.501000000
O     0.171000000    -6.485000000    -1.211000000
C     0.257000000    -5.471000000    -2.151000000
C     1.463000000    -5.369000000    -2.793000000
H     2.271000000    -6.072000000    -2.610000000
C     1.668000000    -4.350000000    -3.727000000
O     2.868000000    -4.243000000    -4.372000000
C     3.449000000    -3.078000000    -4.898000000
C     4.082000000    -2.175000000    -4.084000000
H     4.107000000    -2.308000000    -3.006000000
C     3.368000000    -2.989000000    -6.300000000
H     2.805000000    -3.753000000    -6.830000000
C     4.025000000    -1.953000000    -6.949000000
H     3.987000000    -1.800000000    -8.025000000
C     4.729000000    -1.052000000    -6.147000000
H     5.301000000    -0.290000000    -6.670000000
C     4.755000000    -1.116000000    -4.714000000
O     5.431000000    -0.265000000    -3.921000000
C     4.857000000     0.669000000    -3.148000000
C     5.704000000     1.395000000    -2.302000000
H     6.754000000     1.132000000    -2.205000000
C     5.154000000     2.400000000    -1.539000000
O     5.963000000     3.016000000    -0.625000000
C     5.633000000     4.044000000     0.282000000
C     5.741000000     5.390000000    -0.037000000
H     6.017000000     5.622000000    -1.062000000
C     5.410000000     6.373000000     0.984000000
H     5.485000000     7.435000000     0.764000000
C     5.143000000     5.959000000     2.242000000
H     4.906000000     6.712000000     2.989000000
C     5.056000000     4.557000000     2.514000000
C     5.262000000     3.591000000     1.533000000
H     5.295000000     2.535000000     1.789000000
C     1.981000000    -2.130000000     1.886000000
H     2.052000000    -2.497000000     2.906000000
C     1.426000000    -0.859000000     1.704000000
H     1.059000000    -0.211000000     2.496000000
C     1.085000000    -0.466000000     0.428000000
H     0.605000000     0.553000000     0.334000000
C     1.252000000    -1.294000000    -0.632000000
H     0.885000000    -0.939000000    -1.592000000
C     1.978000000    -2.499000000    -0.473000000
H     2.049000000    -3.184000000    -1.313000000
C     2.294000000    -2.977000000     0.796000000
C     2.980000000    -4.230000000     1.123000000
O     3.735000000    -4.668000000     0.329000000
O     2.787000000    -4.805000000     2.183000000
O     5.703000000    -2.924000000     3.082000000
H     5.590000000    -3.769000000     2.645000000
H     5.200000000    -2.310000000     2.548000000
O     2.670000000    -4.106000000     4.735000000
H     1.775000000    -4.425000000     4.617000000
H     3.071000000    -4.193000000     3.870000000
O     5.853000000     0.219000000     3.763000000
H     6.585000000     0.317000000     3.154000000
H     5.101000000     0.582000000     3.295000000
O     2.237000000    -7.534000000     2.173000000
H     2.830000000    -7.659000000     2.913000000
H     2.167000000    -6.583000000     2.081000000
O     3.905000000    -4.742000000     7.337000000
H     4.778000000    -4.834000000     6.954000000
H     3.363000000    -4.413000000     6.619000000
O     5.976000000    -3.246000000    -0.189000000
H     5.125000000    -3.680000000    -0.128000000
H     6.611000000    -3.935000000     0.010000000
O     5.021000000    -8.548000000    -2.750000000
H     4.919000000    -9.499000000    -2.705000000
H     4.347000000    -8.207000000    -2.162000000
O     6.865000000    -8.890000000     0.809000000
H     6.024000000    -8.620000000     0.440000000
H     6.753000000    -8.794000000     1.755000000
O     8.151000000    -1.697000000     2.231000000
H     7.698000000    -2.474000000     2.561000000
H     9.045000000    -1.992000000     2.066000000
O     5.480000000    -5.729000000     2.180000000
H     4.729000000    -5.509000000     1.628000000
H     5.103000000    -6.209000000     2.917000000
O     5.995000000    -2.742000000     5.855000000
H     5.785000000    -2.817000000     4.924000000
H     6.885000000    -2.391000000     5.873000000
O     7.253000000    -5.643000000     0.334000000
H     6.624000000    -5.566000000     1.051000000
H     7.548000000    -6.553000000     0.369000000
O     4.980000000    -0.991000000     0.950000000
H     5.561000000    -1.649000000     0.568000000
H     4.171000000    -1.060000000     0.441000000
O     3.094000000   -10.194000000    -0.825000000
H     2.835000000   -10.099000000    -1.741000000
H     3.291000000    -9.302000000    -0.538000000
O     4.543000000    -7.555000000     4.291000000
H     4.283000000    -8.172000000     4.975000000
H     5.036000000    -6.878000000     4.754000000
O     7.518000000    -1.419000000    -1.619000000
H     6.679000000    -1.794000000    -1.350000000
H     8.174000000    -1.977000000    -1.201000000
O    -0.177000000    -9.328000000     2.470000000
H    -0.545000000    -9.178000000     3.341000000
H     0.412000000    -8.587000000     2.329000000
O     5.902000000    -5.549000000     5.664000000
H     5.794000000    -4.600000000     5.614000000
H     6.850000000    -5.682000000     5.688000000
O     3.402000000    -7.473000000    -0.309000000
H     2.892000000    -7.419000000     0.499000000
H     3.686000000    -6.574000000    -0.473000000
