215
-1469.14263
C    -3.102000000    -4.060000000     2.498000000
H    -3.607000000    -4.215000000     1.548000000
C    -3.077000000    -2.724000000     2.957000000
C    -2.539000000    -2.456000000     4.238000000
H    -2.254000000    -1.436000000     4.480000000
C    -3.312000000    -1.514000000     2.066000000
O    -4.215000000    -1.958000000     1.014000000
H    -2.500000000    -1.037000000     1.497000000
O    -3.975000000    -0.381000000     2.735000000
C    -3.621000000     0.866000000     2.295000000
C    -2.679000000     1.562000000     3.014000000
H    -2.141000000     1.117000000     3.847000000
C    -2.252000000     2.799000000     2.624000000
O    -1.209000000     3.390000000     3.160000000
C    -2.975000000     3.502000000     1.586000000
C    -2.596000000     4.875000000     1.115000000
H    -3.492000000     5.366000000     0.730000000
C    -1.454000000     4.823000000     0.143000000
C    -1.795000000     4.719000000    -1.171000000
H    -2.834000000     4.589000000    -1.465000000
H    -2.389000000     5.485000000     1.998000000
C    -3.982000000     2.798000000     0.885000000
H    -4.633000000     3.186000000     0.104000000
C    -4.327000000     1.502000000     1.253000000
C    -5.387000000     0.696000000     0.523000000
H    -6.095000000     1.381000000     0.052000000
H    -6.089000000     0.198000000     1.195000000
C    -4.879000000    -0.259000000    -0.587000000
C    -4.829000000     0.213000000    -1.859000000
H    -5.169000000     1.208000000    -2.135000000
C    -4.314000000    -1.518000000    -0.263000000
C    -3.781000000    -2.334000000    -1.284000000
H    -3.297000000    -3.270000000    -1.017000000
C    -3.643000000    -1.877000000    -2.592000000
O    -2.906000000    -2.635000000    -3.473000000
C    -1.501000000    -2.274000000    -3.633000000
C    -0.568000000    -3.470000000    -3.512000000
C     0.564000000    -3.641000000    -4.292000000
H     0.750000000    -2.981000000    -5.136000000
C    -0.645000000    -4.250000000    -2.381000000
H    -1.438000000    -4.068000000    -1.660000000
O    -1.261000000    -1.363000000    -4.783000000
H    -1.205000000    -1.692000000    -2.748000000
C    -4.129000000    -0.580000000    -2.843000000
C    -3.833000000    -0.027000000    -4.232000000
H    -4.593000000     0.737000000    -4.411000000
H    -3.848000000    -0.760000000    -5.041000000
C    -2.509000000     0.699000000    -4.253000000
C    -2.405000000     2.048000000    -3.902000000
H    -3.246000000     2.685000000    -3.642000000
C    -1.317000000     0.023000000    -4.557000000
C    -0.098000000     0.674000000    -4.553000000
H     0.804000000     0.178000000    -4.901000000
C    -0.046000000     1.975000000    -4.058000000
O     1.253000000     2.425000000    -3.914000000
C     1.732000000     2.808000000    -2.615000000
C     3.165000000     2.318000000    -2.413000000
C     3.482000000     1.056000000    -2.744000000
H     2.762000000     0.321000000    -3.096000000
C     4.068000000     3.077000000    -1.685000000
H     3.812000000     4.080000000    -1.352000000
O     1.607000000     4.233000000    -2.427000000
H     0.972000000     2.319000000    -1.988000000
C    -1.205000000     2.702000000    -3.785000000
C    -1.051000000     4.174000000    -3.556000000
H    -1.969000000     4.614000000    -3.951000000
H    -0.261000000     4.646000000    -4.143000000
C    -0.753000000     4.528000000    -2.119000000
C     0.538000000     4.534000000    -1.649000000
C     0.824000000     4.716000000    -0.282000000
H     1.836000000     4.653000000     0.107000000
C    -0.166000000     4.867000000     0.672000000
O     0.275000000     4.734000000     1.913000000
C     0.014000000     3.384000000     2.380000000
H    -0.262000000     2.758000000     1.519000000
C     1.139000000     2.773000000     3.141000000
C     0.969000000     1.519000000     3.799000000
H     0.007000000     1.013000000     3.813000000
C     2.461000000     3.351000000     3.095000000
H     2.654000000     4.341000000     2.691000000
C     3.480000000     2.804000000     3.864000000
O     4.714000000     3.393000000     3.817000000
C     3.306000000     1.597000000     4.525000000
H     4.133000000     1.109000000     5.034000000
C     2.059000000     1.017000000     4.512000000
O     1.872000000    -0.224000000     5.106000000
C     0.849000000    -0.461000000     5.968000000
C     0.114000000    -1.616000000     5.819000000
H     0.472000000    -2.281000000     5.038000000
C     0.572000000     0.334000000     7.024000000
H     1.196000000     1.208000000     7.188000000
C    -0.519000000     0.015000000     7.899000000
H    -0.825000000     0.691000000     8.693000000
C    -1.270000000    -1.117000000     7.612000000
H    -2.117000000    -1.316000000     8.264000000
C    -0.928000000    -1.977000000     6.586000000
O    -1.650000000    -3.138000000     6.286000000
C    -2.192000000    -3.465000000     5.096000000
C    -2.260000000    -4.824000000     4.645000000
H    -1.946000000    -5.599000000     5.339000000
C    -2.680000000    -5.120000000     3.330000000
O    -2.666000000    -6.415000000     2.887000000
C    -2.443000000    -6.642000000     1.519000000
C    -1.266000000    -6.219000000     0.896000000
H    -0.405000000    -5.837000000     1.439000000
C    -3.503000000    -7.105000000     0.689000000
H    -4.402000000    -7.303000000     1.267000000
C    -3.353000000    -7.330000000    -0.696000000
H    -4.148000000    -7.788000000    -1.280000000
C    -2.146000000    -6.951000000    -1.278000000
H    -2.013000000    -7.058000000    -2.351000000
C    -1.138000000    -6.435000000    -0.500000000
O     0.090000000    -6.122000000    -0.962000000
C     0.258000000    -5.300000000    -2.070000000
C     1.459000000    -5.357000000    -2.809000000
H     2.226000000    -6.114000000    -2.668000000
C     1.576000000    -4.496000000    -3.874000000
O     2.703000000    -4.523000000    -4.632000000
C     3.582000000    -3.455000000    -4.818000000
C     3.839000000    -2.651000000    -3.701000000
H     3.374000000    -2.800000000    -2.730000000
C     4.359000000    -3.316000000    -6.012000000
H     4.206000000    -4.080000000    -6.770000000
C     5.297000000    -2.284000000    -6.086000000
H     5.879000000    -2.123000000    -6.989000000
C     5.463000000    -1.392000000    -5.041000000
H     6.329000000    -0.737000000    -5.102000000
C     4.719000000    -1.570000000    -3.853000000
O     5.055000000    -0.794000000    -2.713000000
C     4.750000000     0.550000000    -2.502000000
C     5.700000000     1.296000000    -1.789000000
H     6.661000000     0.932000000    -1.435000000
C     5.356000000     2.606000000    -1.436000000
O     6.342000000     3.391000000    -0.715000000
C     5.962000000     4.054000000     0.444000000
C     6.117000000     5.441000000     0.489000000
H     6.539000000     5.882000000    -0.410000000
C     5.656000000     6.148000000     1.626000000
H     5.715000000     7.233000000     1.650000000
C     5.156000000     5.469000000     2.731000000
H     4.743000000     6.040000000     3.559000000
C     5.125000000     4.054000000     2.715000000
C     5.503000000     3.365000000     1.559000000
H     5.360000000     2.287000000     1.561000000
C     0.693000000    -2.181000000     1.630000000
H     0.699000000    -2.751000000     2.556000000
C    -0.055000000    -1.052000000     1.682000000
H    -0.665000000    -0.805000000     2.547000000
C    -0.156000000    -0.336000000     0.535000000
H    -0.812000000     0.528000000     0.577000000
C     0.403000000    -0.734000000    -0.679000000
H     0.198000000    -0.201000000    -1.604000000
C     1.179000000    -1.880000000    -0.699000000
H     1.613000000    -2.150000000    -1.658000000
C     1.351000000    -2.623000000     0.439000000
C     2.211000000    -3.868000000     0.477000000
O     2.983000000    -4.104000000    -0.421000000
O     2.008000000    -4.606000000     1.409000000
O     2.379000000    -5.315000000     5.973000000
H     2.562000000    -4.383000000     5.852000000
H     2.888000000    -5.560000000     6.746000000
O     4.149000000    -7.457000000     2.531000000
H     3.449000000    -7.903000000     3.008000000
H     4.875000000    -8.080000000     2.532000000
O     1.543000000    -9.176000000    -1.823000000
H     1.885000000    -9.966000000    -1.404000000
H     1.876000000    -8.457000000    -1.286000000
O     5.326000000    -2.735000000    -0.059000000
H     5.407000000    -2.165000000    -0.823000000
H     4.644000000    -3.363000000    -0.299000000
O     1.099000000    -6.113000000     3.604000000
H     1.610000000    -5.825000000     4.360000000
H     1.373000000    -5.533000000     2.894000000
O    -0.411000000    -7.500000000     5.576000000
H    -0.586000000    -8.367000000     5.210000000
H    -0.128000000    -6.976000000     4.826000000
O     3.319000000    -2.855000000     4.718000000
H     3.022000000    -2.051000000     4.292000000
H     3.574000000    -3.429000000     3.996000000
O     1.958000000    -7.654000000     0.597000000
H     2.803000000    -7.674000000     1.047000000
H     1.743000000    -6.724000000     0.532000000
O     6.576000000    -3.283000000     3.254000000
H     5.847000000    -3.884000000     3.101000000
H     6.177000000    -2.414000000     3.242000000
O     4.762000000    -5.485000000    -2.285000000
H     4.181000000    -4.933000000    -1.762000000
H     5.074000000    -6.152000000    -1.674000000
O     1.978000000    -9.028000000     3.468000000
H     1.320000000    -9.344000000     4.088000000
H     1.530000000    -8.342000000     2.973000000
O     5.503000000    -7.496000000    -0.614000000
H     4.858000000    -8.101000000    -0.247000000
H     6.151000000    -8.061000000    -1.033000000
O     4.407000000    -4.756000000     2.768000000
H     3.566000000    -4.695000000     2.316000000
H     4.710000000    -5.646000000     2.591000000
O     5.249000000    -1.059000000     2.028000000
H     5.329000000    -1.744000000     1.365000000
H     4.485000000    -0.551000000     1.756000000
O     6.453000000    -5.172000000     0.986000000
H     5.796000000    -5.643000000     0.473000000
H     6.064000000    -4.312000000     1.142000000
O     2.847000000     0.173000000     1.441000000
H     2.225000000    -0.157000000     0.793000000
H     2.371000000     0.138000000     2.270000000
O    -0.365000000    -9.472000000     0.732000000
H     0.369000000    -9.538000000     0.121000000
H    -0.049000000    -8.890000000     1.424000000
O     6.968000000    -4.770000000    -3.889000000
H     7.488000000    -4.106000000    -3.436000000
H     6.189000000    -4.878000000    -3.344000000
O     7.729000000    -7.078000000     2.781000000
H     7.931000000    -7.832000000     2.227000000
H     7.005000000    -6.639000000     2.334000000
