215
-1466.60280
C    -2.706000000    -3.830000000     2.331000000
H    -3.288000000    -4.050000000     1.439000000
C    -2.630000000    -2.492000000     2.786000000
C    -1.863000000    -2.145000000     3.899000000
H    -1.784000000    -1.088000000     4.141000000
C    -3.346000000    -1.354000000     2.091000000
O    -4.559000000    -1.774000000     1.418000000
H    -2.657000000    -0.924000000     1.349000000
O    -3.644000000    -0.187000000     2.974000000
C    -3.529000000     1.066000000     2.507000000
C    -2.571000000     1.808000000     3.227000000
H    -2.022000000     1.431000000     4.086000000
C    -2.270000000     3.098000000     2.767000000
O    -1.293000000     3.825000000     3.379000000
C    -2.850000000     3.636000000     1.572000000
C    -2.422000000     4.964000000     0.995000000
H    -3.282000000     5.367000000     0.456000000
C    -1.246000000     4.837000000     0.079000000
C    -1.493000000     4.657000000    -1.280000000
H    -2.523000000     4.595000000    -1.620000000
H    -2.205000000     5.610000000     1.848000000
C    -3.879000000     2.856000000     0.933000000
H    -4.396000000     3.303000000     0.088000000
C    -4.193000000     1.590000000     1.406000000
C    -5.424000000     0.838000000     0.824000000
H    -6.095000000     1.529000000     0.310000000
H    -6.086000000     0.371000000     1.557000000
C    -4.966000000    -0.167000000    -0.323000000
C    -4.691000000     0.359000000    -1.560000000
H    -4.972000000     1.381000000    -1.803000000
C    -4.564000000    -1.450000000     0.034000000
C    -3.987000000    -2.325000000    -0.978000000
H    -3.501000000    -3.251000000    -0.680000000
C    -3.646000000    -1.784000000    -2.216000000
O    -2.923000000    -2.543000000    -3.104000000
C    -1.526000000    -2.261000000    -3.226000000
C    -0.739000000    -3.590000000    -3.341000000
C     0.435000000    -3.641000000    -4.097000000
H     0.790000000    -2.773000000    -4.648000000
C    -1.101000000    -4.748000000    -2.607000000
H    -1.981000000    -4.746000000    -1.970000000
O    -1.376000000    -1.475000000    -4.416000000
H    -1.306000000    -1.733000000    -2.286000000
C    -4.035000000    -0.468000000    -2.488000000
C    -3.829000000     0.084000000    -3.872000000
H    -4.421000000     0.993000000    -3.997000000
H    -4.032000000    -0.635000000    -4.667000000
C    -2.458000000     0.688000000    -4.018000000
C    -2.254000000     2.032000000    -3.686000000
H    -3.146000000     2.642000000    -3.575000000
C    -1.385000000    -0.121000000    -4.334000000
C    -0.151000000     0.424000000    -4.446000000
H     0.724000000    -0.218000000    -4.523000000
C     0.074000000     1.794000000    -4.097000000
O     1.405000000     2.245000000    -3.954000000
C     1.954000000     2.641000000    -2.669000000
C     3.392000000     2.135000000    -2.565000000
C     3.688000000     0.893000000    -3.165000000
H     2.972000000     0.363000000    -3.787000000
C     4.354000000     2.690000000    -1.777000000
H     4.034000000     3.591000000    -1.259000000
O     1.906000000     4.041000000    -2.435000000
H     1.452000000     2.057000000    -1.884000000
C    -1.012000000     2.650000000    -3.790000000
C    -0.756000000     4.101000000    -3.609000000
H    -1.684000000     4.553000000    -3.964000000
H     0.084000000     4.374000000    -4.252000000
C    -0.418000000     4.513000000    -2.169000000
C     0.915000000     4.494000000    -1.631000000
C     1.168000000     4.823000000    -0.296000000
H     2.162000000     4.840000000     0.143000000
C     0.079000000     4.950000000     0.582000000
O     0.317000000     4.947000000     1.925000000
C    -0.003000000     3.769000000     2.687000000
H    -0.117000000     2.956000000     1.954000000
C     1.162000000     3.334000000     3.625000000
C     0.910000000     2.407000000     4.624000000
H    -0.127000000     2.188000000     4.864000000
C     2.483000000     3.764000000     3.380000000
H     2.637000000     4.515000000     2.608000000
C     3.565000000     3.158000000     4.013000000
O     4.881000000     3.492000000     3.682000000
C     3.295000000     2.175000000     4.982000000
H     4.112000000     1.657000000     5.477000000
C     1.977000000     1.835000000     5.330000000
O     1.733000000     1.117000000     6.500000000
C     0.576000000     0.405000000     6.701000000
C     0.497000000    -0.852000000     6.034000000
H     1.220000000    -1.080000000     5.255000000
C    -0.386000000     0.826000000     7.633000000
H    -0.375000000     1.805000000     8.107000000
C    -1.403000000    -0.088000000     7.931000000
H    -2.120000000     0.178000000     8.704000000
C    -1.454000000    -1.359000000     7.412000000
H    -2.198000000    -2.076000000     7.751000000
C    -0.515000000    -1.732000000     6.426000000
O    -0.609000000    -2.923000000     5.768000000
C    -1.320000000    -3.183000000     4.629000000
C    -1.473000000    -4.490000000     4.190000000
H    -0.953000000    -5.331000000     4.641000000
C    -2.119000000    -4.827000000     3.032000000
O    -2.123000000    -6.159000000     2.642000000
C    -2.342000000    -6.598000000     1.379000000
C    -1.335000000    -6.532000000     0.394000000
H    -0.360000000    -6.174000000     0.715000000
C    -3.628000000    -7.041000000     1.008000000
H    -4.342000000    -7.103000000     1.824000000
C    -3.810000000    -7.642000000    -0.236000000
H    -4.775000000    -8.000000000    -0.588000000
C    -2.757000000    -7.636000000    -1.180000000
H    -2.875000000    -8.159000000    -2.125000000
C    -1.557000000    -7.076000000    -0.887000000
O    -0.550000000    -7.024000000    -1.875000000
C    -0.224000000    -5.843000000    -2.564000000
C     0.977000000    -5.866000000    -3.227000000
H     1.628000000    -6.725000000    -3.082000000
C     1.359000000    -4.706000000    -3.905000000
O     2.640000000    -4.807000000    -4.414000000
C     3.316000000    -3.669000000    -4.827000000
C     4.015000000    -2.874000000    -3.984000000
H     4.114000000    -3.130000000    -2.932000000
C     3.299000000    -3.391000000    -6.207000000
H     2.870000000    -4.138000000    -6.869000000
C     3.979000000    -2.310000000    -6.667000000
H     4.019000000    -2.236000000    -7.751000000
C     4.614000000    -1.446000000    -5.780000000
H     5.099000000    -0.547000000    -6.152000000
C     4.627000000    -1.704000000    -4.437000000
O     5.299000000    -0.923000000    -3.486000000
C     4.982000000     0.319000000    -3.039000000
C     5.904000000     0.990000000    -2.240000000
H     6.904000000     0.610000000    -2.045000000
C     5.589000000     2.147000000    -1.555000000
O     6.532000000     2.543000000    -0.603000000
C     6.185000000     3.511000000     0.372000000
C     6.277000000     4.787000000     0.078000000
H     6.573000000     5.064000000    -0.931000000
C     5.932000000     5.765000000     1.005000000
H     5.875000000     6.826000000     0.777000000
C     5.400000000     5.341000000     2.226000000
H     5.033000000     6.008000000     3.002000000
C     5.351000000     3.966000000     2.549000000
C     5.767000000     3.067000000     1.649000000
H     5.813000000     2.006000000     1.885000000
C     0.393000000    -2.022000000     1.243000000
H     0.198000000    -2.364000000     2.256000000
C    -0.072000000    -0.787000000     0.787000000
H    -0.682000000    -0.228000000     1.492000000
C     0.351000000    -0.296000000    -0.434000000
H     0.071000000     0.679000000    -0.844000000
C     1.061000000    -1.196000000    -1.252000000
H     1.458000000    -0.797000000    -2.182000000
C     1.406000000    -2.509000000    -0.837000000
H     1.881000000    -3.248000000    -1.478000000
C     1.154000000    -2.908000000     0.425000000
C     1.819000000    -4.175000000     0.958000000
O     2.610000000    -4.818000000     0.333000000
O     1.478000000    -4.477000000     2.134000000
O     5.022000000    -3.950000000     5.958000000
H     5.842000000    -4.439000000     6.015000000
H     5.278000000    -3.091000000     5.623000000
O     5.122000000    -2.230000000     1.733000000
H     4.857000000    -3.035000000     2.177000000
H     4.328000000    -1.928000000     1.290000000
O     2.485000000    -3.172000000     4.108000000
H     1.789000000    -2.874000000     4.694000000
H     2.046000000    -3.762000000     3.495000000
O     2.463000000    -9.843000000     2.536000000
H     1.833000000   -10.523000000     2.299000000
H     1.993000000    -9.021000000     2.396000000
O     4.567000000    -1.467000000     4.467000000
H     3.839000000    -2.086000000     4.523000000
H     4.563000000    -1.174000000     3.555000000
O     0.250000000    -6.239000000     6.749000000
H     1.151000000    -6.412000000     6.478000000
H     0.334000000    -5.630000000     7.483000000
O     1.772000000    -7.220000000     2.195000000
H     2.638000000    -7.263000000     2.601000000
H     1.521000000    -6.299000000     2.263000000
O     5.124000000    -4.496000000    -0.875000000
H     4.280000000    -4.658000000    -0.454000000
H     5.720000000    -4.302000000    -0.152000000
O     5.070000000    -6.989000000    -2.822000000
H     4.736000000    -7.775000000    -2.390000000
H     4.949000000    -6.291000000    -2.177000000
O     3.833000000    -7.750000000     3.867000000
H     3.632000000    -8.514000000     3.326000000
H     4.761000000    -7.580000000     3.706000000
O     7.519000000    -0.850000000     0.965000000
H     6.786000000    -1.371000000     1.293000000
H     8.271000000    -1.441000000     1.009000000
O     4.669000000    -5.104000000     2.495000000
H     4.270000000    -5.032000000     3.363000000
H     3.927000000    -5.110000000     1.891000000
O     7.666000000    -4.404000000     1.689000000
H     7.786000000    -3.671000000     2.293000000
H     6.989000000    -4.942000000     2.098000000
O     3.781000000    -0.770000000    -0.113000000
H     2.986000000    -1.006000000    -0.591000000
H     4.399000000    -0.503000000    -0.794000000
O     3.927000000    -9.600000000    -2.093000000
H     3.255000000    -9.422000000    -2.750000000
H     3.670000000    -9.071000000    -1.338000000
O     7.303000000    -3.884000000    -3.069000000
H     7.028000000    -4.287000000    -3.893000000
H     6.486000000    -3.627000000    -2.643000000
O     3.160000000    -6.098000000     6.218000000
H     3.742000000    -5.345000000     6.117000000
H     3.323000000    -6.632000000     5.440000000
O    -0.532000000    -8.991000000     2.523000000
H    -0.933000000    -8.802000000     3.371000000
H     0.165000000    -8.341000000     2.437000000
O     2.932000000    -7.277000000    -0.524000000
H     2.151000000    -7.612000000    -0.082000000
H     2.975000000    -6.355000000    -0.271000000
