215
-1478.15894
C    -2.908000000    -3.615000000     2.905000000
H    -3.251000000    -3.944000000     1.927000000
C    -2.855000000    -2.268000000     3.208000000
C    -2.402000000    -1.850000000     4.407000000
H    -2.493000000    -0.786000000     4.609000000
C    -3.239000000    -1.279000000     2.071000000
O    -4.273000000    -1.954000000     1.268000000
H    -2.422000000    -0.979000000     1.397000000
O    -3.950000000    -0.222000000     2.708000000
C    -3.837000000     1.039000000     2.164000000
C    -2.944000000     1.891000000     2.798000000
H    -2.374000000     1.506000000     3.640000000
C    -2.564000000     3.073000000     2.188000000
O    -1.579000000     3.734000000     2.812000000
C    -3.248000000     3.529000000     1.011000000
C    -2.883000000     4.876000000     0.299000000
H    -3.726000000     5.237000000    -0.295000000
C    -1.599000000     4.783000000    -0.556000000
C    -1.761000000     4.555000000    -1.921000000
H    -2.703000000     4.465000000    -2.456000000
H    -2.736000000     5.596000000     1.107000000
C    -4.351000000     2.770000000     0.537000000
H    -4.863000000     3.169000000    -0.335000000
C    -4.565000000     1.511000000     1.046000000
C    -5.454000000     0.560000000     0.390000000
H    -6.303000000     0.990000000    -0.144000000
H    -6.030000000    -0.025000000     1.110000000
C    -4.712000000    -0.427000000    -0.584000000
C    -4.633000000    -0.139000000    -1.950000000
H    -5.077000000     0.758000000    -2.372000000
C    -4.150000000    -1.601000000    -0.059000000
C    -3.672000000    -2.590000000    -0.971000000
H    -3.368000000    -3.576000000    -0.630000000
C    -3.583000000    -2.252000000    -2.349000000
O    -2.828000000    -3.106000000    -3.149000000
C    -1.393000000    -2.765000000    -3.240000000
C    -0.427000000    -3.906000000    -2.994000000
C     0.827000000    -3.853000000    -3.536000000
H     1.166000000    -3.143000000    -4.286000000
C    -0.736000000    -4.894000000    -2.087000000
H    -1.689000000    -4.877000000    -1.565000000
O    -1.217000000    -2.087000000    -4.512000000
H    -1.265000000    -2.035000000    -2.427000000
C    -3.980000000    -1.018000000    -2.817000000
C    -3.612000000    -0.614000000    -4.270000000
H    -4.328000000     0.097000000    -4.688000000
H    -3.647000000    -1.495000000    -4.914000000
C    -2.247000000     0.054000000    -4.388000000
C    -2.126000000     1.466000000    -4.270000000
H    -3.029000000     2.066000000    -4.184000000
C    -1.116000000    -0.715000000    -4.541000000
C     0.127000000    -0.117000000    -4.504000000
H     1.026000000    -0.725000000    -4.441000000
C     0.281000000     1.294000000    -4.408000000
O     1.522000000     1.903000000    -4.324000000
C     1.981000000     2.321000000    -2.971000000
C     3.460000000     1.944000000    -2.750000000
C     4.045000000     0.789000000    -3.322000000
H     3.510000000     0.200000000    -4.063000000
C     4.174000000     2.521000000    -1.688000000
H     3.709000000     3.394000000    -1.237000000
O     1.796000000     3.757000000    -2.756000000
H     1.476000000     1.717000000    -2.203000000
C    -0.858000000     2.053000000    -4.344000000
C    -0.845000000     3.599000000    -4.111000000
H    -1.727000000     4.160000000    -4.426000000
H    -0.074000000     3.999000000    -4.773000000
C    -0.608000000     4.082000000    -2.660000000
C     0.673000000     4.168000000    -2.102000000
C     0.865000000     4.542000000    -0.803000000
H     1.811000000     4.529000000    -0.267000000
C    -0.259000000     4.797000000     0.023000000
O    -0.023000000     4.916000000     1.398000000
C    -0.266000000     3.671000000     2.196000000
H    -0.276000000     2.859000000     1.455000000
C     0.819000000     3.519000000     3.209000000
C     0.658000000     2.684000000     4.277000000
H    -0.246000000     2.118000000     4.487000000
C     2.078000000     4.157000000     3.028000000
H     2.291000000     4.717000000     2.121000000
C     3.128000000     3.946000000     3.901000000
O     4.331000000     4.565000000     3.736000000
C     2.979000000     3.147000000     5.043000000
H     3.823000000     3.091000000     5.724000000
C     1.785000000     2.425000000     5.193000000
O     1.780000000     1.377000000     6.134000000
C     0.611000000     0.764000000     6.631000000
C     0.313000000    -0.599000000     6.391000000
H     1.049000000    -1.196000000     5.858000000
C    -0.262000000     1.584000000     7.353000000
H    -0.116000000     2.655000000     7.471000000
C    -1.491000000     1.069000000     7.777000000
H    -2.180000000     1.720000000     8.309000000
C    -1.753000000    -0.266000000     7.537000000
H    -2.673000000    -0.737000000     7.876000000
C    -0.882000000    -1.111000000     6.819000000
O    -1.291000000    -2.403000000     6.500000000
C    -1.883000000    -2.784000000     5.320000000
C    -1.797000000    -4.125000000     4.987000000
H    -1.332000000    -4.862000000     5.637000000
C    -2.321000000    -4.534000000     3.733000000
O    -2.347000000    -5.799000000     3.306000000
C    -2.350000000    -6.342000000     2.061000000
C    -1.273000000    -6.307000000     1.190000000
H    -0.334000000    -5.844000000     1.482000000
C    -3.586000000    -6.869000000     1.576000000
H    -4.477000000    -6.992000000     2.186000000
C    -3.606000000    -7.386000000     0.227000000
H    -4.520000000    -7.787000000    -0.203000000
C    -2.435000000    -7.377000000    -0.575000000
H    -2.484000000    -7.772000000    -1.586000000
C    -1.256000000    -6.908000000    -0.064000000
O    -0.107000000    -6.839000000    -0.947000000
C     0.239000000    -5.826000000    -1.783000000
C     1.524000000    -5.813000000    -2.283000000
H     2.237000000    -6.555000000    -1.931000000
C     1.828000000    -4.811000000    -3.211000000
O     3.109000000    -4.752000000    -3.690000000
C     3.757000000    -3.745000000    -4.325000000
C     4.302000000    -2.633000000    -3.575000000
H     4.212000000    -2.618000000    -2.492000000
C     3.930000000    -3.804000000    -5.755000000
H     3.521000000    -4.631000000    -6.330000000
C     4.707000000    -2.797000000    -6.334000000
H     5.012000000    -2.806000000    -7.377000000
C     5.226000000    -1.758000000    -5.586000000
H     5.821000000    -0.983000000    -6.063000000
C     5.134000000    -1.731000000    -4.200000000
O     5.850000000    -0.739000000    -3.480000000
C     5.228000000     0.269000000    -2.855000000
C     6.024000000     1.004000000    -2.004000000
H     7.089000000     0.811000000    -1.910000000
C     5.416000000     2.021000000    -1.292000000
O     6.129000000     2.377000000    -0.176000000
C     5.923000000     3.482000000     0.608000000
C     6.399000000     4.708000000     0.188000000
H     7.082000000     4.695000000    -0.658000000
C     6.190000000     5.862000000     0.893000000
H     6.493000000     6.810000000     0.454000000
C     5.531000000     5.809000000     2.134000000
H     5.494000000     6.673000000     2.793000000
C     4.925000000     4.629000000     2.537000000
C     5.132000000     3.444000000     1.795000000
H     4.565000000     2.587000000     2.149000000
C     0.925000000    -1.617000000     2.079000000
H     1.210000000    -2.001000000     3.055000000
C     0.211000000    -0.450000000     1.866000000
H    -0.198000000     0.170000000     2.659000000
C    -0.184000000    -0.004000000     0.637000000
H    -0.622000000     1.008000000     0.444000000
C     0.102000000    -0.818000000    -0.465000000
H    -0.270000000    -0.504000000    -1.437000000
C     0.838000000    -1.982000000    -0.267000000
H     1.316000000    -2.505000000    -1.091000000
C     1.207000000    -2.420000000     0.998000000
C     2.080000000    -3.635000000     1.192000000
O     2.949000000    -4.010000000     0.359000000
O     2.006000000    -4.183000000     2.263000000
O     7.902000000    -4.874000000     3.440000000
H     7.117000000    -4.364000000     3.239000000
H     7.649000000    -5.420000000     4.184000000
O     5.855000000    -0.300000000     5.132000000
H     5.332000000    -0.408000000     4.338000000
H     6.190000000     0.595000000     5.078000000
O     4.051000000     0.126000000     3.075000000
H     3.774000000     0.369000000     2.192000000
H     3.675000000    -0.744000000     3.213000000
O     6.031000000    -8.581000000     3.615000000
H     5.957000000    -8.057000000     2.817000000
H     6.431000000    -9.402000000     3.326000000
O     1.506000000    -3.857000000     4.836000000
H     1.475000000    -3.984000000     3.887000000
H     0.589000000    -3.776000000     5.097000000
O     3.453000000    -8.192000000     4.803000000
H     4.282000000    -8.430000000     4.388000000
H     2.981000000    -7.701000000     4.130000000
O     7.345000000     0.635000000     1.411000000
H     6.598000000     1.044000000     0.974000000
H     6.995000000    -0.178000000     1.774000000
O     1.793000000    -6.942000000     2.969000000
H     1.701000000    -7.374000000     2.120000000
H     1.898000000    -6.015000000     2.756000000
O     0.666000000    -5.931000000     7.112000000
H     1.452000000    -6.372000000     6.788000000
H     0.998000000    -5.171000000     7.591000000
O     4.866000000    -2.143000000     0.183000000
H     4.133000000    -2.753000000     0.258000000
H     5.644000000    -2.699000000     0.207000000
O     6.889000000    -3.959000000     0.206000000
H     6.467000000    -4.138000000     1.046000000
H     6.696000000    -4.730000000    -0.328000000
O     5.142000000    -4.181000000     2.423000000
H     4.420000000    -4.366000000     1.822000000
H     4.732000000    -3.723000000     3.157000000
O     5.358000000    -8.322000000     0.938000000
H     6.240000000    -8.372000000     0.570000000
H     5.009000000    -7.492000000     0.612000000
O     3.658000000    -2.578000000     4.207000000
H     2.857000000    -3.060000000     4.414000000
H     4.149000000    -2.567000000     5.029000000
O     4.776000000    -6.725000000    -2.644000000
H     4.567000000    -5.856000000    -2.987000000
H     4.585000000    -6.666000000    -1.708000000
O     3.083000000     0.047000000     0.401000000
H     2.189000000    -0.244000000     0.577000000
H     3.531000000    -0.737000000     0.083000000
O     2.019000000    -8.276000000     0.501000000
H     1.602000000    -8.400000000    -0.351000000
H     1.730000000    -9.026000000     1.021000000
O    -0.029000000    -7.144000000     4.982000000
H     0.287000000    -6.796000000     5.816000000
H     0.764000000    -7.286000000     4.465000000
O     3.936000000    -6.372000000    -0.001000000
H     3.236000000    -6.997000000     0.187000000
H     3.534000000    -5.514000000     0.136000000
