215
-1446.62693
C    -1.806000000    -3.065000000     3.424000000
H    -2.545000000    -3.453000000     2.729000000
C    -1.918000000    -1.726000000     3.740000000
C    -1.096000000    -1.205000000     4.723000000
H    -1.209000000    -0.156000000     4.985000000
C    -2.872000000    -0.802000000     2.904000000
O    -3.971000000    -1.443000000     2.251000000
H    -2.226000000    -0.372000000     2.125000000
O    -3.264000000     0.414000000     3.607000000
C    -3.069000000     1.567000000     2.899000000
C    -1.975000000     2.354000000     3.266000000
H    -1.302000000     2.054000000     4.066000000
C    -1.690000000     3.570000000     2.622000000
O    -0.581000000     4.242000000     2.978000000
C    -2.489000000     3.972000000     1.577000000
C    -2.200000000     5.193000000     0.699000000
H    -3.148000000     5.548000000     0.291000000
C    -1.215000000     4.850000000    -0.426000000
C    -1.626000000     4.474000000    -1.697000000
H    -2.660000000     4.570000000    -2.018000000
H    -1.819000000     6.074000000     1.219000000
C    -3.616000000     3.243000000     1.327000000
H    -4.291000000     3.521000000     0.521000000
C    -3.950000000     2.059000000     1.931000000
C    -5.152000000     1.166000000     1.524000000
H    -5.892000000     1.904000000     1.209000000
H    -5.605000000     0.717000000     2.410000000
C    -4.763000000     0.098000000     0.518000000
C    -4.890000000     0.326000000    -0.855000000
H    -5.227000000     1.298000000    -1.208000000
C    -4.264000000    -1.112000000     0.931000000
C    -4.000000000    -2.125000000     0.030000000
H    -3.574000000    -3.077000000     0.335000000
C    -4.129000000    -1.899000000    -1.344000000
O    -3.680000000    -2.918000000    -2.083000000
C    -2.347000000    -2.792000000    -2.694000000
C    -1.700000000    -4.116000000    -2.852000000
C    -0.834000000    -4.407000000    -3.932000000
H    -0.658000000    -3.801000000    -4.817000000
C    -1.923000000    -5.065000000    -1.849000000
H    -2.651000000    -4.908000000    -1.057000000
O    -2.387000000    -2.110000000    -4.005000000
H    -1.764000000    -2.216000000    -1.961000000
C    -4.563000000    -0.637000000    -1.844000000
C    -4.547000000    -0.245000000    -3.323000000
H    -5.203000000     0.563000000    -3.656000000
H    -4.911000000    -1.057000000    -3.956000000
C    -3.146000000     0.178000000    -3.699000000
C    -2.905000000     1.570000000    -3.738000000
H    -3.588000000     2.377000000    -3.484000000
C    -2.174000000    -0.730000000    -4.027000000
C    -0.950000000    -0.265000000    -4.304000000
H    -0.104000000    -0.884000000    -4.593000000
C    -0.650000000     1.052000000    -4.288000000
O     0.668000000     1.318000000    -4.475000000
C     1.329000000     1.735000000    -3.245000000
C     2.700000000     1.059000000    -3.290000000
C     2.920000000    -0.289000000    -3.761000000
H     2.085000000    -0.808000000    -4.224000000
C     3.865000000     1.742000000    -2.811000000
H     3.776000000     2.777000000    -2.490000000
O     1.419000000     3.155000000    -3.166000000
H     0.879000000     1.433000000    -2.288000000
C    -1.612000000     2.014000000    -3.944000000
C    -1.356000000     3.483000000    -3.997000000
H    -2.242000000     4.031000000    -4.322000000
H    -0.553000000     3.644000000    -4.720000000
C    -0.811000000     3.892000000    -2.662000000
C     0.530000000     3.754000000    -2.320000000
C     0.963000000     4.095000000    -1.071000000
H     1.993000000     3.971000000    -0.745000000
C     0.146000000     4.800000000    -0.084000000
O     0.661000000     5.156000000     1.142000000
C     0.612000000     4.157000000     2.157000000
H     0.382000000     3.195000000     1.677000000
C     1.925000000     3.975000000     2.920000000
C     1.845000000     3.504000000     4.266000000
H     0.866000000     3.527000000     4.739000000
C     3.212000000     4.011000000     2.302000000
H     3.180000000     4.335000000     1.265000000
C     4.339000000     3.555000000     2.919000000
O     5.554000000     3.521000000     2.336000000
C     4.270000000     3.208000000     4.261000000
H     5.238000000     2.974000000     4.698000000
C     3.070000000     3.219000000     4.944000000
O     3.028000000     2.761000000     6.235000000
C     2.095000000     1.848000000     6.681000000
C     1.966000000     0.597000000     6.033000000
H     2.572000000     0.191000000     5.227000000
C     1.264000000     2.216000000     7.767000000
H     1.505000000     3.168000000     8.232000000
C     0.229000000     1.410000000     8.205000000
H    -0.409000000     1.760000000     9.012000000
C     0.108000000     0.164000000     7.526000000
H    -0.576000000    -0.533000000     8.004000000
C     0.952000000    -0.201000000     6.562000000
O     0.859000000    -1.531000000     6.044000000
C    -0.166000000    -2.059000000     5.303000000
C    -0.009000000    -3.388000000     4.867000000
H     0.859000000    -3.943000000     5.213000000
C    -0.864000000    -3.922000000     3.978000000
O    -0.914000000    -5.294000000     3.802000000
C    -1.569000000    -5.960000000     2.802000000
C    -1.008000000    -6.028000000     1.538000000
H     0.040000000    -5.757000000     1.440000000
C    -2.868000000    -6.414000000     2.995000000
H    -3.180000000    -6.310000000     4.031000000
C    -3.637000000    -7.029000000     1.979000000
H    -4.544000000    -7.589000000     2.193000000
C    -3.026000000    -7.084000000     0.689000000
H    -3.572000000    -7.553000000    -0.125000000
C    -1.697000000    -6.724000000     0.517000000
O    -1.143000000    -7.102000000    -0.742000000
C    -1.037000000    -6.198000000    -1.729000000
C    -0.118000000    -6.376000000    -2.729000000
H     0.644000000    -7.151000000    -2.716000000
C     0.016000000    -5.517000000    -3.855000000
O     1.131000000    -5.773000000    -4.726000000
C     1.880000000    -4.708000000    -5.250000000
C     2.712000000    -3.905000000    -4.421000000
H     2.686000000    -4.162000000    -3.365000000
C     1.862000000    -4.305000000    -6.596000000
H     1.265000000    -4.927000000    -7.258000000
C     2.691000000    -3.217000000    -7.041000000
H     2.738000000    -2.876000000    -8.072000000
C     3.511000000    -2.521000000    -6.216000000
H     4.073000000    -1.724000000    -6.696000000
C     3.480000000    -2.823000000    -4.850000000
O     4.330000000    -2.256000000    -4.001000000
C     4.127000000    -0.926000000    -3.566000000
C     5.158000000    -0.250000000    -2.929000000
H     6.099000000    -0.762000000    -2.750000000
C     5.037000000     1.118000000    -2.598000000
O     6.185000000     1.686000000    -2.047000000
C     6.222000000     2.836000000    -1.319000000
C     5.974000000     4.107000000    -1.883000000
H     5.884000000     4.171000000    -2.964000000
C     5.715000000     5.149000000    -1.017000000
H     5.573000000     6.169000000    -1.367000000
C     5.713000000     5.020000000     0.383000000
H     5.443000000     5.834000000     1.049000000
C     5.823000000     3.721000000     0.955000000
C     6.002000000     2.658000000     0.072000000
H     5.811000000     1.635000000     0.385000000
C     1.304000000    -0.972000000     1.815000000
H     1.719000000    -1.289000000     2.768000000
C     0.743000000     0.280000000     1.600000000
H     0.776000000     0.958000000     2.450000000
C     0.200000000     0.561000000     0.407000000
H    -0.237000000     1.513000000     0.245000000
C     0.115000000    -0.405000000    -0.552000000
H    -0.335000000    -0.146000000    -1.507000000
C     0.598000000    -1.708000000    -0.371000000
H     0.388000000    -2.488000000    -1.097000000
C     1.160000000    -2.029000000     0.855000000
C     1.801000000    -3.336000000     1.088000000
O     1.861000000    -4.199000000     0.185000000
O     2.311000000    -3.631000000     2.158000000
O     6.615000000    -0.118000000     5.228000000
H     6.465000000     0.742000000     5.621000000
H     6.181000000    -0.071000000     4.376000000
O     5.608000000    -5.105000000     2.519000000
H     5.752000000    -4.373000000     3.119000000
H     4.694000000    -5.352000000     2.658000000
O    -1.743000000    -5.645000000     6.566000000
H    -1.566000000    -5.280000000     5.699000000
H    -0.945000000    -6.121000000     6.792000000
O     2.908000000    -5.477000000     3.759000000
H     2.699000000    -4.709000000     3.228000000
H     2.771000000    -5.190000000     4.661000000
O     5.252000000    -7.829000000     1.750000000
H     4.731000000    -7.897000000     0.950000000
H     5.623000000    -6.948000000     1.721000000
O     6.902000000    -4.871000000    -0.035000000
H     6.217000000    -4.808000000    -0.701000000
H     6.443000000    -4.735000000     0.794000000
O     4.654000000    -2.060000000     2.155000000
H     4.158000000    -2.816000000     2.468000000
H     4.704000000    -2.182000000     1.207000000
O     4.114000000    -4.876000000    -1.034000000
H     3.181000000    -4.719000000    -0.890000000
H     4.145000000    -5.443000000    -1.804000000
O     4.846000000    -5.942000000    -3.437000000
H     4.282000000    -5.921000000    -4.210000000
H     5.708000000    -5.684000000    -3.762000000
O     5.803000000     0.292000000     2.591000000
H     5.612000000    -0.637000000     2.466000000
H     5.083000000     0.745000000     2.152000000
O     6.765000000    -1.782000000    -0.511000000
H     5.826000000    -1.941000000    -0.415000000
H     7.095000000    -2.559000000    -0.961000000
O     1.051000000    -9.313000000     1.006000000
H     1.498000000    -9.329000000     1.852000000
H     1.571000000    -8.713000000     0.471000000
O     2.729000000    -4.925000000     6.482000000
H     2.556000000    -4.298000000     7.184000000
H     2.790000000    -5.771000000     6.927000000
O     8.578000000    -1.671000000     1.842000000
H     7.993000000    -1.826000000     1.101000000
H     9.373000000    -1.311000000     1.449000000
O     2.425000000    -6.691000000     1.096000000
H     2.288000000    -5.856000000     0.648000000
H     2.646000000    -6.447000000     1.995000000
O     3.752000000     0.361000000     0.529000000
H     2.840000000     0.445000000     0.806000000
H     3.807000000    -0.514000000     0.145000000
O     1.383000000    -7.787000000     4.558000000
H     1.627000000    -6.941000000     4.183000000
H     2.197000000    -8.291000000     4.561000000
O     3.088000000    -8.271000000    -1.248000000
H     4.010000000    -8.116000000    -1.453000000
H     2.883000000    -7.631000000    -0.566000000
O     4.056000000    -2.217000000    -0.680000000
H     3.881000000    -1.856000000    -1.550000000
H     4.184000000    -3.154000000    -0.831000000
