215
-1457.39284
C    -3.881000000    -2.938000000     3.211000000
H    -4.569000000    -3.111000000     2.387000000
C    -3.425000000    -1.598000000     3.361000000
C    -2.498000000    -1.415000000     4.432000000
H    -2.048000000    -0.433000000     4.556000000
C    -3.712000000    -0.539000000     2.362000000
O    -4.817000000    -0.912000000     1.461000000
H    -2.844000000    -0.415000000     1.698000000
O    -4.086000000     0.707000000     2.947000000
C    -3.694000000     1.898000000     2.269000000
C    -2.667000000     2.597000000     2.872000000
H    -2.388000000     2.293000000     3.877000000
C    -2.097000000     3.650000000     2.122000000
O    -0.939000000     4.288000000     2.605000000
C    -2.600000000     3.967000000     0.841000000
C    -2.005000000     5.143000000     0.045000000
H    -2.846000000     5.637000000    -0.447000000
C    -0.891000000     4.761000000    -0.903000000
C    -1.199000000     4.416000000    -2.208000000
H    -2.225000000     4.351000000    -2.562000000
H    -1.636000000     5.881000000     0.760000000
C    -3.680000000     3.291000000     0.275000000
H    -3.881000000     3.426000000    -0.785000000
C    -4.243000000     2.240000000     0.979000000
C    -5.302000000     1.429000000     0.294000000
H    -5.770000000     2.062000000    -0.463000000
H    -6.042000000     1.149000000     1.046000000
C    -4.881000000     0.276000000    -0.587000000
C    -4.556000000     0.346000000    -1.971000000
H    -4.585000000     1.280000000    -2.526000000
C    -4.640000000    -0.914000000     0.113000000
C    -4.024000000    -2.012000000    -0.506000000
H    -3.631000000    -2.878000000     0.021000000
C    -3.845000000    -1.947000000    -1.915000000
O    -3.077000000    -2.902000000    -2.538000000
C    -1.600000000    -2.638000000    -2.596000000
C    -0.781000000    -3.969000000    -2.285000000
C     0.499000000    -4.103000000    -2.793000000
H     0.830000000    -3.415000000    -3.567000000
C    -1.233000000    -4.840000000    -1.282000000
H    -2.217000000    -4.705000000    -0.840000000
O    -1.226000000    -2.249000000    -3.933000000
H    -1.398000000    -1.859000000    -1.847000000
C    -4.123000000    -0.795000000    -2.657000000
C    -3.680000000    -0.547000000    -4.077000000
H    -4.393000000     0.114000000    -4.573000000
H    -3.686000000    -1.511000000    -4.590000000
C    -2.237000000    -0.036000000    -4.127000000
C    -2.058000000     1.395000000    -4.230000000
H    -2.837000000     2.138000000    -4.381000000
C    -1.101000000    -0.875000000    -4.078000000
C     0.131000000    -0.313000000    -4.238000000
H     0.967000000    -1.007000000    -4.199000000
C     0.344000000     1.050000000    -4.438000000
O     1.646000000     1.452000000    -4.384000000
C     2.172000000     1.889000000    -3.158000000
C     3.639000000     1.321000000    -2.842000000
C     3.954000000     0.038000000    -3.266000000
H     3.272000000    -0.611000000    -3.809000000
C     4.563000000     2.058000000    -2.108000000
H     4.271000000     3.045000000    -1.759000000
O     2.174000000     3.340000000    -3.108000000
H     1.503000000     1.536000000    -2.359000000
C    -0.751000000     1.928000000    -4.335000000
C    -0.475000000     3.388000000    -4.365000000
H    -1.271000000     3.973000000    -4.832000000
H     0.424000000     3.522000000    -4.970000000
C    -0.176000000     3.981000000    -2.969000000
C     1.105000000     3.976000000    -2.443000000
C     1.406000000     4.326000000    -1.117000000
H     2.379000000     4.043000000    -0.723000000
C     0.345000000     4.606000000    -0.288000000
O     0.657000000     4.825000000     1.040000000
C     0.290000000     3.846000000     1.982000000
H     0.213000000     2.908000000     1.413000000
C     1.539000000     3.555000000     2.884000000
C     1.345000000     2.682000000     3.918000000
H     0.315000000     2.451000000     4.177000000
C     2.772000000     4.063000000     2.583000000
H     2.898000000     4.743000000     1.744000000
C     3.854000000     3.609000000     3.343000000
O     5.122000000     4.078000000     3.153000000
C     3.704000000     2.756000000     4.342000000
H     4.574000000     2.472000000     4.928000000
C     2.416000000     2.254000000     4.687000000
O     2.187000000     1.176000000     5.496000000
C     1.028000000     0.710000000     6.163000000
C     0.474000000    -0.486000000     5.758000000
H     1.010000000    -1.097000000     5.036000000
C     0.491000000     1.502000000     7.162000000
H     0.947000000     2.434000000     7.485000000
C    -0.636000000     1.005000000     7.892000000
H    -1.048000000     1.389000000     8.822000000
C    -1.166000000    -0.235000000     7.500000000
H    -1.920000000    -0.781000000     8.062000000
C    -0.601000000    -0.975000000     6.429000000
O    -1.030000000    -2.208000000     6.168000000
C    -1.980000000    -2.421000000     5.184000000
C    -2.484000000    -3.745000000     5.104000000
H    -2.099000000    -4.493000000     5.791000000
C    -3.303000000    -4.014000000     3.982000000
O    -3.681000000    -5.337000000     3.685000000
C    -3.463000000    -5.940000000     2.469000000
C    -2.221000000    -5.980000000     1.881000000
H    -1.272000000    -5.673000000     2.314000000
C    -4.594000000    -6.432000000     1.880000000
H    -5.583000000    -6.415000000     2.332000000
C    -4.455000000    -7.040000000     0.645000000
H    -5.340000000    -7.485000000     0.197000000
C    -3.245000000    -7.140000000     0.011000000
H    -3.239000000    -7.682000000    -0.932000000
C    -2.103000000    -6.636000000     0.617000000
O    -0.863000000    -6.843000000     0.024000000
C    -0.382000000    -5.892000000    -0.897000000
C     0.826000000    -6.062000000    -1.541000000
H     1.401000000    -6.969000000    -1.370000000
C     1.309000000    -5.188000000    -2.474000000
O     2.551000000    -5.423000000    -3.134000000
C     3.104000000    -4.421000000    -3.938000000
C     3.899000000    -3.499000000    -3.298000000
H     4.102000000    -3.604000000    -2.236000000
C     2.885000000    -4.340000000    -5.292000000
H     2.129000000    -4.985000000    -5.732000000
C     3.499000000    -3.356000000    -6.077000000
H     3.132000000    -3.225000000    -7.091000000
C     4.418000000    -2.479000000    -5.437000000
H     4.836000000    -1.717000000    -6.090000000
C     4.599000000    -2.540000000    -4.055000000
O     5.504000000    -1.773000000    -3.365000000
C     5.162000000    -0.511000000    -2.909000000
C     6.070000000     0.155000000    -2.148000000
H     7.036000000    -0.264000000    -1.877000000
C     5.783000000     1.523000000    -1.811000000
O     6.680000000     2.180000000    -0.949000000
C     6.316000000     3.265000000    -0.179000000
C     6.523000000     4.520000000    -0.716000000
H     6.850000000     4.482000000    -1.752000000
C     6.201000000     5.675000000     0.040000000
H     6.187000000     6.655000000    -0.430000000
C     5.750000000     5.532000000     1.338000000
H     5.601000000     6.452000000     1.897000000
C     5.647000000     4.291000000     1.878000000
C     5.910000000     3.152000000     1.158000000
H     5.794000000     2.177000000     1.625000000
C     0.442000000    -1.355000000     1.972000000
H     0.672000000    -1.804000000     2.935000000
C    -0.379000000    -0.250000000     1.795000000
H    -0.694000000     0.167000000     2.748000000
C    -0.671000000     0.266000000     0.550000000
H    -1.302000000     1.260000000     0.489000000
C    -0.144000000    -0.348000000    -0.584000000
H    -0.424000000     0.079000000    -1.544000000
C     0.675000000    -1.464000000    -0.416000000
H     1.107000000    -1.833000000    -1.343000000
C     1.004000000    -1.973000000     0.814000000
C     1.967000000    -3.114000000     0.893000000
O     2.587000000    -3.453000000    -0.100000000
O     2.237000000    -3.502000000     2.002000000
O     6.560000000     0.702000000     4.137000000
H     5.921000000     0.200000000     4.642000000
H     6.332000000     0.529000000     3.223000000
O     6.258000000    -3.870000000     4.323000000
H     6.841000000    -3.114000000     4.390000000
H     5.804000000    -3.750000000     3.489000000
O     3.300000000    -3.273000000     4.298000000
H     2.770000000    -3.596000000     3.569000000
H     3.509000000    -4.055000000     4.808000000
O     7.346000000    -6.732000000    -1.650000000
H     6.406000000    -6.690000000    -1.477000000
H     7.682000000    -7.351000000    -1.001000000
O     7.922000000    -6.924000000     2.866000000
H     7.169000000    -6.338000000     2.790000000
H     8.514000000    -6.645000000     2.169000000
O    -0.570000000    -8.140000000     3.685000000
H    -0.282000000    -8.654000000     4.440000000
H    -0.244000000    -7.256000000     3.859000000
O     5.021000000    -2.931000000     1.983000000
H     4.170000000    -3.168000000     2.353000000
H     5.050000000    -3.385000000     1.141000000
O     3.036000000    -5.879000000     5.567000000
H     3.509000000    -5.459000000     6.285000000
H     3.356000000    -6.781000000     5.564000000
O     4.471000000    -6.663000000     2.586000000
H     3.521000000    -6.706000000     2.691000000
H     4.607000000    -6.002000000     1.907000000
O     5.613000000    -0.459000000     1.539000000
H     5.427000000    -1.335000000     1.879000000
H     4.875000000    -0.266000000     0.961000000
O     8.242000000     0.312000000     0.687000000
H     8.187000000     0.479000000    -0.254000000
H     7.334000000     0.176000000     0.959000000
O     7.298000000    -3.618000000    -1.142000000
H     6.486000000    -3.884000000    -0.710000000
H     7.990000000    -4.042000000    -0.634000000
O     1.563000000    -6.188000000     2.035000000
H     1.856000000    -5.307000000     1.802000000
H     1.086000000    -6.072000000     2.857000000
O     4.587000000    -7.022000000    -1.731000000
H     3.810000000    -6.878000000    -2.272000000
H     4.700000000    -7.972000000    -1.722000000
O     4.531000000    -0.842000000     5.299000000
H     3.996000000    -0.067000000     5.473000000
H     3.924000000    -1.469000000     4.905000000
O     2.345000000     0.872000000     0.459000000
H     2.187000000    -0.069000000     0.385000000
H     1.481000000     1.269000000     0.346000000
O     0.456000000    -5.837000000     4.812000000
H     1.364000000    -5.779000000     5.110000000
H    -0.063000000    -5.776000000     5.614000000
O     1.110000000    -8.782000000     0.919000000
H     1.340000000    -7.916000000     1.256000000
H     0.164000000    -8.846000000     1.049000000
O     4.918000000    -4.785000000    -0.361000000
H     4.636000000    -5.557000000    -0.853000000
H     4.113000000    -4.287000000    -0.215000000
