215
-1437.49404
C    -2.802000000    -3.326000000     3.042000000
H    -3.405000000    -3.617000000     2.186000000
C    -2.703000000    -1.926000000     3.239000000
C    -1.925000000    -1.466000000     4.306000000
H    -1.816000000    -0.408000000     4.532000000
C    -3.372000000    -1.029000000     2.202000000
O    -4.443000000    -1.572000000     1.488000000
H    -2.545000000    -0.876000000     1.493000000
O    -3.823000000     0.109000000     2.912000000
C    -3.456000000     1.357000000     2.301000000
C    -2.454000000     2.092000000     2.935000000
H    -1.961000000     1.686000000     3.815000000
C    -2.020000000     3.252000000     2.377000000
O    -0.983000000     3.899000000     2.975000000
C    -2.678000000     3.783000000     1.269000000
C    -2.261000000     5.009000000     0.500000000
H    -3.131000000     5.333000000    -0.076000000
C    -1.133000000     4.692000000    -0.446000000
C    -1.391000000     4.260000000    -1.743000000
H    -2.433000000     4.160000000    -2.033000000
H    -2.053000000     5.765000000     1.260000000
C    -3.733000000     3.068000000     0.667000000
H    -4.193000000     3.454000000    -0.240000000
C    -4.123000000     1.863000000     1.150000000
C    -5.327000000     1.104000000     0.561000000
H    -5.910000000     1.842000000     0.006000000
H    -6.022000000     0.608000000     1.241000000
C    -4.849000000    -0.032000000    -0.305000000
C    -4.782000000     0.212000000    -1.702000000
H    -5.150000000     1.184000000    -2.022000000
C    -4.433000000    -1.279000000     0.172000000
C    -3.921000000    -2.227000000    -0.665000000
H    -3.450000000    -3.151000000    -0.337000000
C    -3.872000000    -2.024000000    -2.070000000
O    -3.275000000    -2.933000000    -2.869000000
C    -1.828000000    -2.706000000    -3.106000000
C    -0.991000000    -3.980000000    -2.927000000
C     0.378000000    -4.068000000    -3.339000000
H     0.742000000    -3.244000000    -3.947000000
C    -1.578000000    -5.089000000    -2.224000000
H    -2.577000000    -5.084000000    -1.795000000
O    -1.637000000    -2.050000000    -4.448000000
H    -1.460000000    -2.011000000    -2.337000000
C    -4.240000000    -0.785000000    -2.555000000
C    -4.037000000    -0.350000000    -4.031000000
H    -4.742000000     0.449000000    -4.269000000
H    -4.214000000    -1.158000000    -4.744000000
C    -2.541000000     0.127000000    -4.272000000
C    -2.290000000     1.505000000    -4.041000000
H    -3.104000000     2.186000000    -3.805000000
C    -1.404000000    -0.699000000    -4.509000000
C    -0.072000000    -0.227000000    -4.422000000
H     0.851000000    -0.793000000    -4.529000000
C     0.090000000     1.169000000    -4.349000000
O     1.316000000     1.795000000    -4.343000000
C     1.971000000     2.098000000    -3.117000000
C     3.361000000     1.537000000    -2.987000000
C     3.720000000     0.463000000    -3.776000000
H     3.067000000     0.018000000    -4.523000000
C     4.213000000     2.122000000    -2.083000000
H     4.003000000     3.097000000    -1.650000000
O     2.007000000     3.526000000    -2.868000000
H     1.308000000     1.689000000    -2.340000000
C    -0.975000000     2.023000000    -4.098000000
C    -0.697000000     3.538000000    -3.922000000
H    -1.618000000     4.080000000    -4.148000000
H    -0.011000000     3.994000000    -4.639000000
C    -0.337000000     3.916000000    -2.534000000
C     0.996000000     3.993000000    -2.111000000
C     1.234000000     4.392000000    -0.819000000
H     2.268000000     4.379000000    -0.486000000
C     0.202000000     4.687000000    -0.017000000
O     0.570000000     4.840000000     1.289000000
C     0.300000000     3.766000000     2.221000000
H     0.335000000     2.807000000     1.683000000
C     1.414000000     3.645000000     3.219000000
C     1.201000000     3.105000000     4.510000000
H     0.229000000     2.772000000     4.864000000
C     2.656000000     4.027000000     2.861000000
H     2.830000000     4.268000000     1.816000000
C     3.727000000     3.785000000     3.725000000
O     4.949000000     4.093000000     3.339000000
C     3.552000000     3.177000000     4.959000000
H     4.398000000     2.889000000     5.578000000
C     2.260000000     2.864000000     5.405000000
O     2.123000000     2.062000000     6.515000000
C     0.951000000     1.382000000     6.765000000
C     0.878000000     0.047000000     6.395000000
H     1.692000000    -0.576000000     6.034000000
C    -0.069000000     1.991000000     7.437000000
H     0.031000000     3.040000000     7.705000000
C    -1.246000000     1.330000000     7.499000000
H    -2.088000000     1.731000000     8.059000000
C    -1.326000000    -0.061000000     7.207000000
H    -2.219000000    -0.649000000     7.402000000
C    -0.259000000    -0.689000000     6.622000000
O    -0.349000000    -2.020000000     6.217000000
C    -1.205000000    -2.371000000     5.167000000
C    -1.319000000    -3.719000000     4.894000000
H    -0.691000000    -4.418000000     5.441000000
C    -2.105000000    -4.235000000     3.816000000
O    -2.186000000    -5.574000000     3.555000000
C    -2.525000000    -6.019000000     2.347000000
C    -1.575000000    -6.362000000     1.369000000
H    -0.498000000    -6.338000000     1.512000000
C    -3.893000000    -6.264000000     2.149000000
H    -4.712000000    -6.006000000     2.816000000
C    -4.293000000    -6.807000000     0.904000000
H    -5.333000000    -6.954000000     0.624000000
C    -3.332000000    -7.028000000    -0.135000000
H    -3.560000000    -7.363000000    -1.144000000
C    -1.978000000    -6.829000000     0.149000000
O    -1.000000000    -7.089000000    -0.853000000
C    -0.753000000    -6.154000000    -1.829000000
C     0.595000000    -6.165000000    -2.241000000
H     1.283000000    -6.951000000    -1.942000000
C     1.147000000    -5.116000000    -2.923000000
O     2.555000000    -5.114000000    -3.150000000
C     3.152000000    -4.250000000    -4.151000000
C     3.808000000    -3.112000000    -3.770000000
H     3.714000000    -2.827000000    -2.726000000
C     3.009000000    -4.516000000    -5.444000000
H     2.410000000    -5.402000000    -5.637000000
C     3.687000000    -3.766000000    -6.393000000
H     3.581000000    -4.044000000    -7.438000000
C     4.459000000    -2.680000000    -6.027000000
H     4.935000000    -2.051000000    -6.774000000
C     4.464000000    -2.302000000    -4.689000000
O     5.296000000    -1.285000000    -4.281000000
C     4.954000000    -0.137000000    -3.571000000
C     5.830000000     0.364000000    -2.570000000
H     6.789000000    -0.083000000    -2.319000000
C     5.404000000     1.492000000    -1.818000000
O     6.284000000     2.039000000    -0.874000000
C     6.122000000     3.072000000    -0.021000000
C     6.668000000     4.276000000    -0.542000000
H     7.143000000     4.384000000    -1.513000000
C     6.613000000     5.435000000     0.298000000
H     6.983000000     6.358000000    -0.141000000
C     5.972000000     5.378000000     1.545000000
H     6.106000000     6.220000000     2.220000000
C     5.402000000     4.156000000     1.992000000
C     5.445000000     3.007000000     1.223000000
H     5.009000000     2.072000000     1.565000000
C     0.542000000    -1.181000000     1.664000000
H     0.260000000    -1.472000000     2.673000000
C    -0.028000000    -0.149000000     0.948000000
H    -0.862000000     0.410000000     1.365000000
C     0.437000000     0.141000000    -0.287000000
H    -0.050000000     0.995000000    -0.853000000
C     1.460000000    -0.600000000    -0.844000000
H     1.784000000    -0.522000000    -1.878000000
C     1.976000000    -1.729000000    -0.122000000
H     2.711000000    -2.372000000    -0.600000000
C     1.527000000    -2.003000000     1.171000000
C     2.043000000    -3.167000000     1.987000000
O     3.148000000    -3.564000000     1.664000000
O     1.663000000    -3.508000000     3.105000000
O     5.157000000     0.317000000     4.679000000
H     4.479000000     0.425000000     4.011000000
H     5.048000000    -0.584000000     4.986000000
O     6.087000000    -6.285000000     0.988000000
H     5.180000000    -6.135000000     0.719000000
H     6.583000000    -5.592000000     0.552000000
O     2.627000000    -2.731000000     5.433000000
H     2.471000000    -2.878000000     4.500000000
H     1.765000000    -2.823000000     5.838000000
O     3.748000000    -7.760000000     2.358000000
H     3.929000000    -8.145000000     3.216000000
H     4.554000000    -7.296000000     2.129000000
O     7.211000000    -0.567000000     1.115000000
H     6.787000000    -0.828000000     0.298000000
H     6.728000000    -1.036000000     1.796000000
O     3.977000000    -5.592000000     7.105000000
H     3.464000000    -4.965000000     6.595000000
H     4.875000000    -5.265000000     7.056000000
O    -0.162000000    -8.062000000     4.279000000
H     0.363000000    -8.565000000     4.902000000
H     0.204000000    -7.179000000     4.316000000
O     6.914000000    -5.185000000     4.075000000
H     5.997000000    -5.381000000     3.881000000
H     7.255000000    -5.990000000     4.463000000
O     0.749000000    -5.648000000     7.121000000
H    -0.153000000    -5.589000000     7.435000000
H     1.180000000    -4.873000000     7.481000000
O     5.072000000    -2.031000000     2.379000000
H     5.137000000    -2.197000000     3.319000000
H     4.377000000    -2.617000000     2.080000000
O     6.176000000    -3.349000000    -1.778000000
H     5.362000000    -3.804000000    -1.563000000
H     6.268000000    -3.457000000    -2.725000000
O     2.307000000    -9.025000000    -1.199000000
H     3.052000000    -9.482000000    -0.808000000
H     1.981000000    -8.457000000    -0.501000000
O     7.884000000    -4.223000000     0.107000000
H     8.706000000    -4.479000000    -0.311000000
H     7.332000000    -3.919000000    -0.614000000
O     4.133000000    -5.144000000     3.937000000
H     3.815000000    -4.599000000     3.217000000
H     3.627000000    -5.954000000     3.866000000
O     5.481000000    -2.256000000     5.506000000
H     4.600000000    -2.606000000     5.639000000
H     6.031000000    -3.030000000     5.385000000
O     2.946000000     0.964000000     1.604000000
H     2.087000000     0.690000000     1.283000000
H     3.553000000     0.316000000     1.246000000
O     1.154000000    -5.765000000     4.372000000
H     1.243000000    -5.418000000     5.260000000
H     1.296000000    -5.009000000     3.803000000
O     1.247000000    -8.727000000     1.887000000
H     2.156000000    -8.429000000     1.924000000
H     0.808000000    -8.241000000     2.585000000
O     3.534000000    -5.606000000    -0.119000000
H     3.373000000    -5.217000000    -0.978000000
H     3.474000000    -4.871000000     0.492000000
