215
-1440.95340
C    -3.077000000    -3.082000000     2.830000000
H    -3.758000000    -3.506000000     2.097000000
C    -2.736000000    -1.696000000     2.920000000
C    -1.900000000    -1.280000000     3.972000000
H    -1.597000000    -0.243000000     4.089000000
C    -3.422000000    -0.632000000     2.073000000
O    -4.580000000    -1.179000000     1.313000000
H    -2.681000000    -0.306000000     1.329000000
O    -3.802000000     0.528000000     2.807000000
C    -3.563000000     1.731000000     2.230000000
C    -2.541000000     2.466000000     2.769000000
H    -2.076000000     2.240000000     3.726000000
C    -2.040000000     3.544000000     2.138000000
O    -0.922000000     4.116000000     2.747000000
C    -2.552000000     3.982000000     0.896000000
C    -2.154000000     5.263000000     0.213000000
H    -2.958000000     5.764000000    -0.330000000
C    -0.999000000     4.942000000    -0.744000000
C    -1.329000000     4.629000000    -2.019000000
H    -2.341000000     4.829000000    -2.362000000
H    -1.916000000     5.996000000     0.987000000
C    -3.547000000     3.210000000     0.331000000
H    -4.052000000     3.496000000    -0.588000000
C    -4.092000000     2.100000000     0.979000000
C    -5.202000000     1.379000000     0.261000000
H    -5.768000000     2.094000000    -0.340000000
H    -5.783000000     1.077000000     1.134000000
C    -4.781000000     0.266000000    -0.639000000
C    -4.679000000     0.429000000    -2.002000000
H    -4.754000000     1.453000000    -2.359000000
C    -4.619000000    -1.005000000    -0.035000000
C    -4.157000000    -2.086000000    -0.819000000
H    -3.860000000    -3.066000000    -0.456000000
C    -3.896000000    -1.912000000    -2.185000000
O    -3.179000000    -2.843000000    -2.862000000
C    -1.734000000    -2.541000000    -3.038000000
C    -0.911000000    -3.811000000    -2.855000000
C     0.179000000    -4.116000000    -3.685000000
H     0.494000000    -3.457000000    -4.490000000
C    -1.207000000    -4.672000000    -1.772000000
H    -1.940000000    -4.329000000    -1.047000000
O    -1.552000000    -2.107000000    -4.359000000
H    -1.491000000    -1.690000000    -2.385000000
C    -4.207000000    -0.669000000    -2.802000000
C    -3.906000000    -0.449000000    -4.198000000
H    -4.621000000     0.282000000    -4.580000000
H    -4.057000000    -1.410000000    -4.694000000
C    -2.492000000     0.108000000    -4.377000000
C    -2.281000000     1.484000000    -4.274000000
H    -3.134000000     2.129000000    -4.079000000
C    -1.428000000    -0.716000000    -4.496000000
C    -0.163000000    -0.233000000    -4.546000000
H     0.704000000    -0.887000000    -4.509000000
C     0.094000000     1.133000000    -4.615000000
O     1.411000000     1.566000000    -4.482000000
C     1.959000000     2.028000000    -3.221000000
C     3.379000000     1.451000000    -2.895000000
C     3.452000000     0.049000000    -2.828000000
H     2.643000000    -0.620000000    -3.109000000
C     4.432000000     2.206000000    -2.484000000
H     4.365000000     3.282000000    -2.343000000
O     2.002000000     3.495000000    -3.150000000
H     1.277000000     1.667000000    -2.437000000
C    -0.986000000     2.006000000    -4.325000000
C    -0.772000000     3.566000000    -4.274000000
H    -1.647000000     4.101000000    -4.650000000
H     0.059000000     3.718000000    -4.966000000
C    -0.382000000     4.105000000    -2.886000000
C     1.003000000     4.085000000    -2.468000000
C     1.276000000     4.441000000    -1.173000000
H     2.311000000     4.294000000    -0.873000000
C     0.272000000     4.875000000    -0.305000000
O     0.598000000     4.999000000     1.065000000
C     0.302000000     3.879000000     1.987000000
H     0.193000000     3.028000000     1.299000000
C     1.368000000     3.473000000     2.978000000
C     1.123000000     3.017000000     4.267000000
H     0.117000000     3.078000000     4.675000000
C     2.715000000     3.472000000     2.592000000
H     3.004000000     3.636000000     1.557000000
C     3.760000000     3.173000000     3.442000000
O     5.095000000     3.200000000     3.094000000
C     3.454000000     2.817000000     4.738000000
H     4.273000000     2.556000000     5.404000000
C     2.138000000     2.610000000     5.188000000
O     1.917000000     2.170000000     6.437000000
C     0.827000000     1.467000000     6.763000000
C     0.608000000     0.288000000     6.106000000
H     1.092000000    -0.042000000     5.191000000
C     0.045000000     1.797000000     7.875000000
H     0.273000000     2.691000000     8.450000000
C    -1.055000000     1.050000000     8.239000000
H    -1.617000000     1.307000000     9.132000000
C    -1.226000000    -0.160000000     7.552000000
H    -2.070000000    -0.798000000     7.802000000
C    -0.372000000    -0.620000000     6.522000000
O    -0.617000000    -1.833000000     5.939000000
C    -1.451000000    -2.182000000     4.926000000
C    -1.793000000    -3.531000000     4.844000000
H    -1.321000000    -4.211000000     5.548000000
C    -2.515000000    -3.996000000     3.741000000
O    -2.991000000    -5.265000000     3.725000000
C    -2.960000000    -5.998000000     2.550000000
C    -1.882000000    -5.892000000     1.644000000
H    -1.017000000    -5.291000000     1.913000000
C    -4.038000000    -6.906000000     2.307000000
H    -4.722000000    -6.974000000     3.148000000
C    -4.069000000    -7.632000000     1.121000000
H    -4.880000000    -8.323000000     0.905000000
C    -3.038000000    -7.501000000     0.216000000
H    -3.040000000    -7.983000000    -0.758000000
C    -1.909000000    -6.632000000     0.459000000
O    -0.813000000    -6.630000000    -0.415000000
C    -0.556000000    -5.928000000    -1.595000000
C     0.446000000    -6.240000000    -2.497000000
H     1.032000000    -7.152000000    -2.417000000
C     0.794000000    -5.373000000    -3.503000000
O     2.040000000    -5.636000000    -4.155000000
C     3.119000000    -4.692000000    -4.168000000
C     3.356000000    -3.786000000    -3.072000000
H     2.776000000    -3.951000000    -2.167000000
C     3.776000000    -4.482000000    -5.363000000
H     3.581000000    -5.187000000    -6.166000000
C     4.763000000    -3.496000000    -5.374000000
H     5.395000000    -3.433000000    -6.256000000
C     5.075000000    -2.725000000    -4.306000000
H     5.809000000    -1.939000000    -4.465000000
C     4.424000000    -2.857000000    -3.119000000
O     4.651000000    -1.899000000    -2.104000000
C     4.620000000    -0.578000000    -2.349000000
C     5.730000000     0.176000000    -1.992000000
H     6.640000000    -0.268000000    -1.596000000
C     5.593000000     1.582000000    -2.008000000
O     6.569000000     2.352000000    -1.449000000
C     6.313000000     3.170000000    -0.433000000
C     6.433000000     4.545000000    -0.635000000
H     6.731000000     4.916000000    -1.612000000
C     6.088000000     5.421000000     0.374000000
H     6.048000000     6.492000000     0.197000000
C     5.676000000     4.926000000     1.586000000
H     5.351000000     5.676000000     2.302000000
C     5.543000000     3.606000000     1.828000000
C     5.881000000     2.706000000     0.835000000
H     5.769000000     1.657000000     1.095000000
C     0.856000000    -1.327000000     2.411000000
H     1.030000000    -1.580000000     3.454000000
C     0.414000000    -0.048000000     2.093000000
H     0.074000000     0.678000000     2.828000000
C     0.275000000     0.222000000     0.708000000
H    -0.256000000     1.188000000     0.457000000
C     0.595000000    -0.688000000    -0.250000000
H     0.543000000    -0.475000000    -1.314000000
C     0.939000000    -1.952000000     0.065000000
H     1.190000000    -2.664000000    -0.717000000
C     1.159000000    -2.262000000     1.416000000
C     1.472000000    -3.691000000     1.725000000
O     2.155000000    -4.359000000     1.037000000
O     1.247000000    -4.228000000     2.807000000
O     2.854000000    -8.670000000     4.586000000
H     2.221000000    -8.020000000     4.282000000
H     3.384000000    -8.869000000     3.814000000
O     4.867000000    -0.134000000     3.346000000
H     4.215000000     0.083000000     2.680000000
H     4.352000000    -0.413000000     4.103000000
O    -0.593000000    -9.378000000     3.055000000
H    -0.328000000    -9.886000000     3.822000000
H    -0.239000000    -8.503000000     3.212000000
O     1.686000000    -3.512000000     5.303000000
H     1.700000000    -3.566000000     4.347000000
H     0.902000000    -3.998000000     5.559000000
O     3.836000000    -7.857000000     2.025000000
H     2.938000000    -7.752000000     1.711000000
H     4.100000000    -6.977000000     2.294000000
O     3.971000000    -4.873000000     5.569000000
H     3.184000000    -4.341000000     5.688000000
H     4.689000000    -4.303000000     5.843000000
O     1.266000000    -6.897000000     1.325000000
H     0.523000000    -7.046000000     0.741000000
H     1.295000000    -5.947000000     1.439000000
O     6.654000000    -6.849000000     2.656000000
H     6.791000000    -7.589000000     2.064000000
H     5.875000000    -6.410000000     2.314000000
O     0.227000000    -5.854000000     6.705000000
H     0.176000000    -6.638000000     7.252000000
H     0.561000000    -5.174000000     7.291000000
O     4.506000000    -1.882000000     0.600000000
H     5.028000000    -2.176000000     1.346000000
H     4.038000000    -2.666000000     0.311000000
O     5.536000000    -4.657000000    -0.147000000
H     4.778000000    -5.242000000    -0.144000000
H     5.563000000    -4.305000000    -1.037000000
O     7.326000000    -3.009000000     0.958000000
H     8.051000000    -3.067000000     0.336000000
H     6.631000000    -3.537000000     0.566000000
O     4.176000000    -5.357000000     2.893000000
H     3.583000000    -4.778000000     2.413000000
H     4.003000000    -5.165000000     3.815000000
O     3.812000000    -1.462000000     5.646000000
H     3.021000000    -1.980000000     5.493000000
H     4.438000000    -2.084000000     6.015000000
O     4.363000000    -7.379000000    -2.831000000
H     4.349000000    -8.241000000    -2.416000000
H     3.984000000    -6.792000000    -2.176000000
O     3.417000000     0.492000000     1.032000000
H     2.563000000     0.299000000     1.417000000
H     3.757000000    -0.361000000     0.762000000
O     3.061000000    -9.049000000    -0.406000000
H     2.306000000    -9.583000000    -0.158000000
H     3.727000000    -9.684000000    -0.669000000
O     0.638000000    -6.935000000     4.356000000
H     0.499000000    -6.413000000     5.147000000
H     0.879000000    -6.295000000     3.686000000
O     3.203000000    -6.033000000    -0.657000000
H     2.898000000    -6.908000000    -0.420000000
H     2.655000000    -5.440000000    -0.143000000
