215
-1472.43185
C    -2.653000000    -3.295000000     3.445000000
H    -3.253000000    -3.680000000     2.625000000
C    -2.575000000    -1.951000000     3.713000000
C    -1.700000000    -1.483000000     4.743000000
H    -1.673000000    -0.416000000     4.948000000
C    -3.310000000    -0.901000000     2.827000000
O    -4.424000000    -1.508000000     2.219000000
H    -2.569000000    -0.633000000     2.059000000
O    -3.589000000     0.309000000     3.544000000
C    -3.409000000     1.495000000     2.915000000
C    -2.333000000     2.281000000     3.390000000
H    -1.811000000     1.951000000     4.284000000
C    -1.906000000     3.381000000     2.660000000
O    -0.708000000     3.967000000     3.036000000
C    -2.621000000     3.759000000     1.510000000
C    -2.293000000     5.049000000     0.719000000
H    -3.299000000     5.352000000     0.421000000
C    -1.293000000     4.795000000    -0.346000000
C    -1.691000000     4.501000000    -1.623000000
H    -2.753000000     4.562000000    -1.847000000
H    -1.809000000     5.865000000     1.258000000
C    -3.739000000     3.039000000     1.156000000
H    -4.260000000     3.354000000     0.256000000
C    -4.122000000     1.863000000     1.764000000
C    -5.362000000     1.136000000     1.215000000
H    -5.971000000     1.823000000     0.624000000
H    -6.064000000     0.852000000     2.002000000
C    -4.914000000    -0.061000000     0.426000000
C    -4.943000000     0.142000000    -0.920000000
H    -5.320000000     1.065000000    -1.351000000
C    -4.491000000    -1.329000000     0.888000000
C    -3.976000000    -2.264000000     0.026000000
H    -3.496000000    -3.199000000     0.301000000
C    -3.846000000    -1.958000000    -1.319000000
O    -3.224000000    -2.899000000    -2.143000000
C    -1.924000000    -2.555000000    -2.505000000
C    -0.983000000    -3.772000000    -2.470000000
C     0.190000000    -3.812000000    -3.263000000
H     0.326000000    -2.963000000    -3.928000000
C    -1.081000000    -4.681000000    -1.355000000
H    -1.928000000    -4.596000000    -0.679000000
O    -1.917000000    -2.014000000    -3.803000000
H    -1.507000000    -1.808000000    -1.813000000
C    -4.410000000    -0.804000000    -1.810000000
C    -4.237000000    -0.417000000    -3.283000000
H    -5.003000000     0.340000000    -3.464000000
H    -4.412000000    -1.283000000    -3.925000000
C    -2.931000000     0.203000000    -3.613000000
C    -2.681000000     1.570000000    -3.609000000
H    -3.513000000     2.193000000    -3.291000000
C    -1.853000000    -0.623000000    -3.913000000
C    -0.657000000    -0.137000000    -4.345000000
H     0.232000000    -0.741000000    -4.508000000
C    -0.439000000     1.273000000    -4.400000000
O     0.821000000     1.734000000    -4.652000000
C     1.582000000     2.040000000    -3.514000000
C     3.035000000     1.576000000    -3.732000000
C     3.407000000     0.531000000    -4.514000000
H     2.676000000     0.006000000    -5.124000000
C     3.996000000     2.047000000    -2.842000000
H     3.707000000     2.734000000    -2.051000000
O     1.519000000     3.494000000    -3.179000000
H     1.255000000     1.573000000    -2.573000000
C    -1.465000000     2.113000000    -4.048000000
C    -1.240000000     3.648000000    -3.958000000
H    -2.184000000     4.192000000    -4.036000000
H    -0.667000000     3.988000000    -4.822000000
C    -0.771000000     4.064000000    -2.601000000
C     0.605000000     3.931000000    -2.246000000
C     0.981000000     4.287000000    -1.009000000
H     2.000000000     4.160000000    -0.653000000
C     0.031000000     4.691000000    -0.037000000
O     0.521000000     4.870000000     1.182000000
C     0.361000000     3.787000000     2.099000000
H     0.062000000     2.898000000     1.525000000
C     1.693000000     3.318000000     2.772000000
C     1.692000000     2.602000000     3.952000000
H     0.755000000     2.306000000     4.418000000
C     2.941000000     3.788000000     2.328000000
H     2.878000000     4.403000000     1.434000000
C     4.164000000     3.452000000     2.845000000
O     5.377000000     3.935000000     2.438000000
C     4.083000000     2.731000000     4.017000000
H     4.967000000     2.336000000     4.512000000
C     2.863000000     2.325000000     4.597000000
O     2.885000000     1.744000000     5.791000000
C     1.781000000     1.175000000     6.422000000
C     1.416000000    -0.176000000     6.175000000
H     1.966000000    -0.706000000     5.402000000
C     0.990000000     1.980000000     7.213000000
H     1.360000000     2.987000000     7.388000000
C    -0.205000000     1.418000000     7.645000000
H    -0.916000000     2.123000000     8.069000000
C    -0.654000000     0.082000000     7.379000000
H    -1.631000000    -0.330000000     7.616000000
C     0.247000000    -0.695000000     6.677000000
O    -0.064000000    -2.023000000     6.465000000
C    -0.941000000    -2.423000000     5.442000000
C    -1.027000000    -3.763000000     5.215000000
H    -0.356000000    -4.431000000     5.748000000
C    -1.913000000    -4.241000000     4.265000000
O    -2.165000000    -5.607000000     4.161000000
C    -2.202000000    -6.208000000     2.885000000
C    -1.216000000    -6.072000000     1.907000000
H    -0.342000000    -5.438000000     2.036000000
C    -3.374000000    -7.021000000     2.712000000
H    -4.068000000    -7.087000000     3.547000000
C    -3.531000000    -7.720000000     1.525000000
H    -4.379000000    -8.360000000     1.294000000
C    -2.535000000    -7.643000000     0.544000000
H    -2.573000000    -8.351000000    -0.279000000
C    -1.448000000    -6.718000000     0.728000000
O    -0.475000000    -6.728000000    -0.297000000
C    -0.244000000    -5.763000000    -1.313000000
C     0.913000000    -5.821000000    -2.056000000
H     1.618000000    -6.634000000    -1.901000000
C     1.116000000    -4.852000000    -3.075000000
O     2.280000000    -4.908000000    -3.789000000
C     2.562000000    -3.949000000    -4.684000000
C     3.478000000    -2.980000000    -4.396000000
H     4.016000000    -3.088000000    -3.458000000
C     1.974000000    -4.008000000    -5.940000000
H     1.185000000    -4.737000000    -6.107000000
C     2.316000000    -3.132000000    -6.915000000
H     1.788000000    -3.118000000    -7.865000000
C     3.223000000    -2.120000000    -6.615000000
H     3.650000000    -1.565000000    -7.447000000
C     3.792000000    -2.074000000    -5.373000000
O     4.873000000    -1.256000000    -5.145000000
C     4.626000000    -0.112000000    -4.447000000
C     5.561000000     0.347000000    -3.572000000
H     6.496000000    -0.202000000    -3.490000000
C     5.295000000     1.480000000    -2.728000000
O     6.079000000     1.755000000    -1.693000000
C     5.923000000     2.959000000    -1.057000000
C     6.409000000     4.144000000    -1.628000000
H     6.731000000     4.095000000    -2.664000000
C     6.487000000     5.324000000    -0.850000000
H     6.912000000     6.206000000    -1.322000000
C     6.076000000     5.286000000     0.470000000
H     6.127000000     6.151000000     1.126000000
C     5.701000000     4.066000000     1.104000000
C     5.619000000     2.887000000     0.324000000
H     5.341000000     1.958000000     0.815000000
C     0.812000000    -1.138000000     2.029000000
H     1.106000000    -1.326000000     3.059000000
C     0.066000000    -0.010000000     1.719000000
H    -0.319000000     0.649000000     2.494000000
C    -0.293000000     0.304000000     0.427000000
H    -0.910000000     1.179000000     0.161000000
C     0.058000000    -0.595000000    -0.583000000
H    -0.305000000    -0.415000000    -1.592000000
C     0.759000000    -1.741000000    -0.330000000
H     1.130000000    -2.428000000    -1.087000000
C     1.157000000    -1.995000000     1.009000000
C     1.824000000    -3.329000000     1.411000000
O     1.952000000    -4.242000000     0.606000000
O     2.450000000    -3.355000000     2.432000000
O     5.052000000    -0.757000000     5.686000000
H     4.506000000    -0.021000000     5.963000000
H     4.926000000    -0.806000000     4.739000000
O     6.137000000    -3.342000000     5.106000000
H     5.756000000    -2.476000000     5.252000000
H     5.435000000    -3.953000000     5.332000000
O     2.220000000    -5.257000000     3.956000000
H     2.219000000    -4.420000000     3.492000000
H     2.815000000    -5.123000000     4.693000000
O     7.938000000    -5.726000000     0.489000000
H     7.423000000    -5.608000000     1.287000000
H     7.636000000    -6.560000000     0.130000000
O     5.788000000    -8.619000000     1.561000000
H     6.267000000    -8.361000000     0.773000000
H     5.594000000    -7.793000000     2.004000000
O     6.225000000    -6.109000000     2.916000000
H     5.500000000    -5.507000000     2.750000000
H     6.588000000    -5.822000000     3.754000000
O     4.766000000    -4.056000000     1.596000000
H     3.963000000    -3.709000000     1.986000000
H     4.517000000    -4.285000000     0.700000000
O     3.941000000    -4.470000000    -1.130000000
H     3.033000000    -4.436000000    -0.829000000
H     4.176000000    -5.397000000    -1.077000000
O     4.396000000    -1.161000000     3.194000000
H     3.873000000    -1.931000000     2.972000000
H     4.050000000    -0.467000000     2.633000000
O     3.429000000    -9.193000000     2.625000000
H     3.090000000    -8.572000000     1.980000000
H     4.347000000    -9.313000000     2.383000000
O     6.790000000    -0.872000000     0.036000000
H     5.861000000    -0.885000000    -0.192000000
H     7.149000000    -1.658000000    -0.375000000
O     2.263000000    -3.441000000     7.835000000
H     2.224000000    -2.839000000     8.578000000
H     1.407000000    -3.359000000     7.415000000
O     4.006000000    -4.840000000     6.077000000
H     3.718000000    -4.290000000     6.805000000
H     4.077000000    -5.717000000     6.453000000
O     7.188000000    -3.029000000     2.479000000
H     6.834000000    -2.743000000     3.321000000
H     6.437000000    -3.402000000     2.017000000
O     2.575000000    -6.800000000     1.602000000
H     2.191000000    -6.111000000     1.060000000
H     2.770000000    -6.369000000     2.434000000
O     3.349000000     0.169000000     0.904000000
H     2.536000000     0.346000000     0.429000000
H     3.832000000    -0.432000000     0.338000000
O     0.197000000    -7.313000000     5.311000000
H     0.395000000    -6.644000000     4.655000000
H     1.027000000    -7.770000000     5.445000000
O     1.226000000    -8.977000000     0.325000000
H     1.998000000    -9.527000000     0.457000000
H     1.523000000    -8.093000000     0.541000000
O     4.121000000    -1.613000000    -0.761000000
H     4.179000000    -1.369000000    -1.685000000
H     4.026000000    -2.565000000    -0.771000000
