215
-1470.35182
C     2.256000000     2.863000000    -3.765000000
H     2.059000000     2.026000000    -4.431000000
C     2.920000000     2.788000000    -2.563000000
C     3.089000000     3.937000000    -1.776000000
H     3.700000000     3.916000000    -0.877000000
C     3.477000000     1.448000000    -2.066000000
O     3.863000000     0.572000000    -3.141000000
H     2.734000000     0.969000000    -1.412000000
O     4.682000000     1.662000000    -1.235000000
C     4.719000000     1.081000000    -0.072000000
C     4.182000000     1.757000000     1.041000000
H     3.839000000     2.773000000     0.860000000
C     3.896000000     1.082000000     2.222000000
O     3.174000000     1.743000000     3.232000000
C     4.262000000    -0.291000000     2.285000000
C     4.052000000    -1.100000000     3.578000000
H     4.798000000    -1.896000000     3.631000000
C     2.618000000    -1.645000000     3.528000000
C     2.357000000    -3.004000000     3.222000000
H     3.188000000    -3.662000000     2.981000000
H     4.223000000    -0.497000000     4.472000000
C     4.736000000    -0.933000000     1.164000000
H     4.863000000    -2.007000000     1.270000000
C     4.983000000    -0.285000000    -0.034000000
C     5.368000000    -1.083000000    -1.272000000
H     5.982000000    -1.905000000    -0.899000000
H     6.083000000    -0.539000000    -1.894000000
C     4.185000000    -1.589000000    -2.031000000
C     3.757000000    -2.901000000    -1.890000000
H     4.218000000    -3.521000000    -1.126000000
C     3.510000000    -0.750000000    -2.942000000
C     2.419000000    -1.211000000    -3.648000000
H     1.757000000    -0.561000000    -4.215000000
C     1.986000000    -2.558000000    -3.521000000
O     0.773000000    -2.913000000    -4.117000000
C    -0.435000000    -2.869000000    -3.357000000
C    -1.614000000    -2.188000000    -4.041000000
C    -2.886000000    -2.667000000    -3.878000000
H    -2.942000000    -3.604000000    -3.330000000
C    -1.346000000    -0.970000000    -4.701000000
H    -0.336000000    -0.586000000    -4.820000000
O    -0.766000000    -4.143000000    -2.811000000
H    -0.177000000    -2.186000000    -2.534000000
C     2.602000000    -3.350000000    -2.557000000
C     2.073000000    -4.762000000    -2.247000000
H     2.908000000    -5.330000000    -1.832000000
H     1.612000000    -5.210000000    -3.130000000
C     0.991000000    -4.714000000    -1.194000000
C     1.313000000    -4.806000000     0.139000000
H     2.327000000    -5.059000000     0.437000000
C    -0.327000000    -4.370000000    -1.478000000
C    -1.255000000    -4.423000000    -0.494000000
H    -2.309000000    -4.363000000    -0.755000000
C    -0.961000000    -4.534000000     0.837000000
O    -1.999000000    -4.250000000     1.704000000
C    -1.986000000    -2.970000000     2.392000000
C    -3.384000000    -2.407000000     2.479000000
C    -4.344000000    -2.630000000     1.549000000
H    -4.101000000    -3.408000000     0.830000000
C    -3.722000000    -1.453000000     3.471000000
H    -2.985000000    -1.137000000     4.205000000
O    -1.323000000    -3.157000000     3.655000000
H    -1.391000000    -2.239000000     1.825000000
C     0.371000000    -4.733000000     1.193000000
C     0.751000000    -4.926000000     2.621000000
H     1.554000000    -5.642000000     2.807000000
H    -0.200000000    -5.317000000     2.988000000
C     1.040000000    -3.578000000     3.201000000
C     0.010000000    -2.813000000     3.707000000
C     0.306000000    -1.557000000     4.184000000
H    -0.569000000    -1.038000000     4.567000000
C     1.524000000    -0.907000000     4.034000000
O     1.587000000     0.435000000     4.459000000
C     1.773000000     1.416000000     3.454000000
H     1.528000000     0.865000000     2.533000000
C     0.887000000     2.604000000     3.666000000
C     1.291000000     3.854000000     3.139000000
H     2.180000000     3.922000000     2.517000000
C    -0.356000000     2.517000000     4.368000000
H    -0.607000000     1.573000000     4.847000000
C    -1.092000000     3.678000000     4.574000000
O    -2.301000000     3.666000000     5.232000000
C    -0.753000000     4.895000000     4.000000000
H    -1.257000000     5.838000000     4.195000000
C     0.482000000     4.963000000     3.295000000
O     0.797000000     6.179000000     2.679000000
C     1.841000000     6.417000000     1.881000000
C     1.821000000     6.136000000     0.552000000
H     0.940000000     5.618000000     0.181000000
C     2.911000000     7.126000000     2.359000000
H     2.871000000     7.266000000     3.436000000
C     4.036000000     7.376000000     1.583000000
H     4.787000000     7.949000000     2.121000000
C     3.982000000     7.142000000     0.236000000
H     4.828000000     7.452000000    -0.372000000
C     2.880000000     6.421000000    -0.266000000
O     2.906000000     6.259000000    -1.623000000
C     2.657000000     5.133000000    -2.253000000
C     1.898000000     5.240000000    -3.443000000
H     1.586000000     6.231000000    -3.761000000
C     1.686000000     4.033000000    -4.144000000
O     1.208000000     4.166000000    -5.401000000
C     0.559000000     3.143000000    -6.066000000
C    -0.511000000     2.504000000    -5.427000000
H    -0.771000000     2.769000000    -4.405000000
C     0.962000000     2.857000000    -7.355000000
H     1.904000000     3.261000000    -7.717000000
C     0.201000000     1.937000000    -8.044000000
H     0.365000000     1.757000000    -9.104000000
C    -0.862000000     1.310000000    -7.430000000
H    -1.569000000     0.750000000    -8.037000000
C    -1.193000000     1.558000000    -6.122000000
O    -2.409000000     0.991000000    -5.693000000
C    -2.477000000    -0.234000000    -5.088000000
C    -3.762000000    -0.805000000    -4.984000000
H    -4.654000000    -0.318000000    -5.368000000
C    -3.981000000    -1.940000000    -4.287000000
O    -5.299000000    -2.420000000    -4.165000000
C    -5.638000000    -3.000000000    -2.952000000
C    -5.955000000    -2.311000000    -1.781000000
H    -5.949000000    -1.226000000    -1.842000000
C    -5.700000000    -4.399000000    -2.896000000
H    -5.450000000    -4.958000000    -3.795000000
C    -6.083000000    -5.052000000    -1.714000000
H    -6.074000000    -6.135000000    -1.620000000
C    -6.480000000    -4.290000000    -0.593000000
H    -6.780000000    -4.774000000     0.333000000
C    -6.255000000    -2.954000000    -0.623000000
O    -6.474000000    -2.138000000     0.433000000
C    -5.582000000    -1.992000000     1.503000000
C    -5.901000000    -1.104000000     2.491000000
H    -6.907000000    -0.692000000     2.484000000
C    -4.974000000    -0.835000000     3.507000000
O    -5.359000000     0.088000000     4.474000000
C    -4.543000000     0.757000000     5.335000000
C    -4.224000000     0.199000000     6.565000000
H    -4.655000000    -0.717000000     6.961000000
C    -3.174000000     0.839000000     7.309000000
H    -2.875000000     0.443000000     8.276000000
C    -2.537000000     1.999000000     6.961000000
H    -1.766000000     2.468000000     7.567000000
C    -2.887000000     2.552000000     5.707000000
C    -3.865000000     1.914000000     4.925000000
H    -4.079000000     2.348000000     3.951000000
C    -1.660000000     0.166000000    -1.176000000
H    -2.553000000    -0.357000000    -1.508000000
C    -0.717000000    -0.621000000    -0.507000000
H    -0.864000000    -1.697000000    -0.465000000
C     0.412000000     0.060000000     0.034000000
H     1.234000000    -0.582000000     0.337000000
C     0.524000000     1.418000000    -0.140000000
H     1.415000000     1.859000000     0.300000000
C    -0.491000000     2.169000000    -0.684000000
H    -0.474000000     3.254000000    -0.735000000
C    -1.585000000     1.525000000    -1.297000000
C    -2.639000000     2.264000000    -2.036000000
O    -2.595000000     3.493000000    -2.037000000
O    -3.653000000     1.725000000    -2.362000000
O    -7.789000000     3.369000000    -4.205000000
H    -8.356000000     4.077000000    -3.900000000
H    -6.901000000     3.675000000    -4.019000000
O    -5.029000000     5.611000000     1.607000000
H    -4.715000000     5.502000000     0.709000000
H    -4.751000000     4.813000000     2.056000000
O    -7.662000000     1.836000000     1.232000000
H    -7.708000000     2.620000000     0.685000000
H    -6.726000000     1.692000000     1.367000000
O    -1.171000000     6.357000000    -6.572000000
H    -0.433000000     6.201000000    -7.161000000
H    -1.748000000     5.606000000    -6.707000000
O    -4.393000000     8.155000000    -1.802000000
H    -3.794000000     7.931000000    -2.514000000
H    -4.651000000     9.059000000    -1.982000000
O    -6.062000000     5.607000000    -6.581000000
H    -5.536000000     4.956000000    -6.117000000
H    -6.817000000     5.118000000    -6.907000000
O    -2.713000000     3.970000000     1.015000000
H    -1.811000000     3.672000000     1.132000000
H    -2.751000000     4.266000000     0.106000000
O    -1.156000000     5.984000000    -2.105000000
H    -1.182000000     5.031000000    -2.188000000
H    -1.550000000     6.306000000    -2.916000000
O    -5.192000000     2.477000000    -5.793000000
H    -5.590000000     2.230000000    -6.628000000
H    -4.592000000     1.758000000    -5.592000000
O    -2.114000000     7.334000000     1.854000000
H    -2.713000000     7.057000000     1.160000000
H    -2.688000000     7.638000000     2.557000000
O    -5.138000000     7.090000000    -4.753000000
H    -4.297000000     6.647000000    -4.643000000
H    -5.553000000     6.638000000    -5.488000000
O    -4.666000000     1.939000000     1.418000000
H    -4.130000000     2.698000000     1.189000000
H    -4.254000000     1.207000000     0.958000000
O    -2.672000000     4.327000000    -7.484000000
H    -1.775000000     4.077000000    -7.704000000
H    -2.803000000     3.992000000    -6.597000000
O    -5.284000000     4.028000000    -2.678000000
H    -4.643000000     3.318000000    -2.643000000
H    -4.927000000     4.702000000    -2.099000000
O    -3.697000000     5.836000000    -0.798000000
H    -2.931000000     5.562000000    -1.301000000
H    -3.911000000     6.705000000    -1.140000000
O    -2.231000000     7.587000000    -4.017000000
H    -2.044000000     7.235000000    -4.888000000
H    -1.926000000     8.494000000    -4.056000000
O    -0.180000000     7.998000000    -0.604000000
H    -0.392000000     7.243000000    -1.153000000
H    -0.619000000     7.820000000     0.228000000
O    -6.321000000     0.892000000    -3.040000000
H    -5.379000000     0.789000000    -2.900000000
H    -6.478000000     1.830000000    -2.928000000
O    -2.930000000     4.223000000    -4.581000000
H    -2.682000000     3.843000000    -3.738000000
H    -3.821000000     3.909000000    -4.733000000
