215
-1446.71131
C    -2.605000000    -2.653000000     4.295000000
H    -3.469000000    -3.031000000     3.754000000
C    -2.253000000    -1.351000000     4.126000000
C    -1.126000000    -0.839000000     4.867000000
H    -0.792000000     0.189000000     4.753000000
C    -2.921000000    -0.389000000     3.173000000
O    -4.278000000    -0.808000000     2.805000000
H    -2.323000000    -0.218000000     2.266000000
O    -3.132000000     0.846000000     3.829000000
C    -2.995000000     1.992000000     3.073000000
C    -1.741000000     2.609000000     3.173000000
H    -1.010000000     2.326000000     3.927000000
C    -1.399000000     3.589000000     2.264000000
O    -0.130000000     4.036000000     2.430000000
C    -2.249000000     4.003000000     1.229000000
C    -1.739000000     5.102000000     0.355000000
H    -2.614000000     5.467000000    -0.187000000
C    -0.888000000     4.606000000    -0.765000000
C    -1.526000000     4.157000000    -1.908000000
H    -2.606000000     4.200000000    -2.024000000
H    -1.354000000     5.992000000     0.857000000
C    -3.548000000     3.394000000     1.124000000
H    -4.248000000     3.590000000     0.316000000
C    -3.905000000     2.380000000     2.033000000
C    -5.182000000     1.655000000     1.793000000
H    -5.983000000     2.288000000     1.405000000
H    -5.618000000     1.282000000     2.722000000
C    -4.945000000     0.430000000     0.911000000
C    -4.976000000     0.568000000    -0.470000000
H    -5.104000000     1.597000000    -0.799000000
C    -4.614000000    -0.800000000     1.499000000
C    -4.348000000    -1.851000000     0.650000000
H    -3.854000000    -2.736000000     1.043000000
C    -4.366000000    -1.690000000    -0.757000000
O    -3.825000000    -2.737000000    -1.477000000
C    -2.503000000    -2.470000000    -1.885000000
C    -1.550000000    -3.663000000    -1.661000000
C    -0.527000000    -3.972000000    -2.603000000
H    -0.524000000    -3.429000000    -3.545000000
C    -1.713000000    -4.417000000    -0.517000000
H    -2.308000000    -4.002000000     0.292000000
O    -2.539000000    -2.189000000    -3.346000000
H    -2.072000000    -1.662000000    -1.277000000
C    -4.704000000    -0.471000000    -1.339000000
C    -4.686000000    -0.223000000    -2.745000000
H    -5.430000000     0.518000000    -3.043000000
H    -4.944000000    -1.132000000    -3.292000000
C    -3.332000000     0.174000000    -3.321000000
C    -3.076000000     1.468000000    -3.600000000
H    -3.806000000     2.238000000    -3.360000000
C    -2.415000000    -0.823000000    -3.705000000
C    -1.207000000    -0.467000000    -4.363000000
H    -0.449000000    -1.143000000    -4.751000000
C    -0.918000000     0.862000000    -4.546000000
O     0.396000000     1.191000000    -4.973000000
C     1.330000000     1.561000000    -3.923000000
C     2.701000000     1.004000000    -4.100000000
C     2.787000000    -0.339000000    -4.438000000
H     1.889000000    -0.872000000    -4.736000000
C     3.878000000     1.650000000    -3.764000000
H     3.948000000     2.698000000    -3.485000000
O     1.385000000     2.983000000    -3.868000000
H     0.899000000     1.163000000    -2.992000000
C    -1.845000000     1.890000000    -4.109000000
C    -1.528000000     3.336000000    -4.231000000
H    -2.394000000     3.973000000    -4.425000000
H    -0.843000000     3.452000000    -5.073000000
C    -0.772000000     3.741000000    -2.992000000
C     0.619000000     3.624000000    -2.901000000
C     1.273000000     3.970000000    -1.738000000
H     2.344000000     3.804000000    -1.653000000
C     0.514000000     4.505000000    -0.706000000
O     1.273000000     4.580000000     0.354000000
C     0.941000000     3.644000000     1.407000000
H     0.484000000     2.777000000     0.907000000
C     2.286000000     3.267000000     2.066000000
C     2.342000000     3.113000000     3.487000000
H     1.494000000     3.284000000     4.145000000
C     3.381000000     2.979000000     1.229000000
H     3.270000000     3.001000000     0.148000000
C     4.589000000     2.662000000     1.808000000
O     5.753000000     2.326000000     1.124000000
C     4.616000000     2.511000000     3.156000000
H     5.554000000     2.108000000     3.530000000
C     3.520000000     2.698000000     4.004000000
O     3.675000000     2.432000000     5.414000000
C     2.644000000     1.810000000     6.142000000
C     2.273000000     0.480000000     6.025000000
H     2.887000000    -0.175000000     5.412000000
C     1.822000000     2.683000000     6.874000000
H     2.000000000     3.747000000     7.000000000
C     0.605000000     2.223000000     7.335000000
H    -0.050000000     2.910000000     7.864000000
C     0.268000000     0.850000000     7.289000000
H    -0.657000000     0.500000000     7.739000000
C     1.080000000    -0.042000000     6.559000000
O     0.670000000    -1.318000000     6.483000000
C    -0.412000000    -1.721000000     5.631000000
C    -0.741000000    -3.056000000     5.619000000
H    -0.081000000    -3.819000000     6.025000000
C    -1.873000000    -3.537000000     5.010000000
O    -2.201000000    -4.822000000     5.149000000
C    -2.426000000    -5.614000000     4.079000000
C    -1.486000000    -5.671000000     3.048000000
H    -0.511000000    -5.211000000     3.184000000
C    -3.765000000    -6.072000000     3.886000000
H    -4.452000000    -5.933000000     4.717000000
C    -4.123000000    -6.599000000     2.621000000
H    -5.117000000    -7.010000000     2.464000000
C    -3.167000000    -6.712000000     1.616000000
H    -3.396000000    -7.197000000     0.670000000
C    -1.855000000    -6.249000000     1.829000000
O    -0.841000000    -6.272000000     0.851000000
C    -0.766000000    -5.472000000    -0.243000000
C     0.267000000    -5.717000000    -1.125000000
H     0.911000000    -6.566000000    -0.912000000
C     0.312000000    -5.077000000    -2.334000000
O     1.316000000    -5.495000000    -3.150000000
C     1.661000000    -4.816000000    -4.241000000
C     2.498000000    -3.795000000    -4.065000000
H     2.846000000    -3.484000000    -3.083000000
C     1.230000000    -5.058000000    -5.583000000
H     0.617000000    -5.883000000    -5.937000000
C     1.702000000    -4.369000000    -6.700000000
H     1.502000000    -4.595000000    -7.744000000
C     2.625000000    -3.346000000    -6.490000000
H     3.142000000    -2.847000000    -7.306000000
C     3.044000000    -3.127000000    -5.184000000
O     4.128000000    -2.279000000    -4.969000000
C     4.021000000    -1.002000000    -4.490000000
C     5.230000000    -0.223000000    -4.307000000
H     6.217000000    -0.660000000    -4.433000000
C     5.135000000     1.047000000    -3.860000000
O     6.302000000     1.697000000    -3.557000000
C     6.329000000     2.529000000    -2.508000000
C     6.831000000     3.821000000    -2.599000000
H     7.287000000     4.209000000    -3.507000000
C     6.970000000     4.660000000    -1.498000000
H     7.276000000     5.701000000    -1.565000000
C     6.566000000     4.189000000    -0.269000000
H     6.667000000     4.782000000     0.636000000
C     6.085000000     2.884000000    -0.108000000
C     5.968000000     2.044000000    -1.229000000
H     5.621000000     1.018000000    -1.138000000
C     0.955000000    -1.023000000     1.386000000
H     1.173000000    -0.923000000     2.446000000
C     0.273000000    -0.015000000     0.696000000
H    -0.075000000     0.898000000     1.172000000
C     0.161000000    -0.124000000    -0.657000000
H    -0.352000000     0.681000000    -1.157000000
C     0.688000000    -1.253000000    -1.317000000
H     0.630000000    -1.321000000    -2.400000000
C     1.442000000    -2.171000000    -0.581000000
H     1.966000000    -2.968000000    -1.103000000
C     1.507000000    -2.154000000     0.783000000
C     2.116000000    -3.233000000     1.587000000
O     2.617000000    -4.196000000     1.043000000
O     2.463000000    -3.008000000     2.784000000
O     3.968000000    -6.457000000    -3.438000000
H     3.442000000    -6.610000000    -4.223000000
H     3.499000000    -5.768000000    -2.966000000
O     1.860000000    -5.095000000     4.401000000
H     2.320000000    -4.261000000     4.306000000
H     1.735000000    -5.403000000     3.504000000
O     7.782000000    -6.200000000     2.276000000
H     8.498000000    -6.813000000     2.441000000
H     7.480000000    -5.945000000     3.148000000
O     6.854000000    -4.150000000     4.560000000
H     6.174000000    -4.235000000     3.892000000
H     6.879000000    -5.007000000     4.986000000
O     4.864000000    -4.501000000     2.701000000
H     4.109000000    -4.018000000     2.367000000
H     4.624000000    -5.422000000     2.600000000
O     3.901000000    -4.839000000    -1.002000000
H     3.262000000    -4.540000000    -0.354000000
H     4.078000000    -5.748000000    -0.761000000
O     2.925000000    -4.323000000     6.887000000
H     2.880000000    -4.656000000     5.991000000
H     2.200000000    -3.701000000     6.949000000
O     5.661000000    -6.500000000     0.801000000
H     6.391000000    -6.252000000     1.368000000
H     5.446000000    -7.395000000     1.064000000
O     2.600000000    -8.493000000     4.486000000
H     1.988000000    -9.169000000     4.194000000
H     2.596000000    -7.846000000     3.781000000
O     8.114000000    -2.269000000     2.267000000
H     7.772000000    -2.888000000     2.913000000
H     7.389000000    -2.135000000     1.657000000
O     5.956000000    -1.605000000     5.318000000
H     5.379000000    -1.366000000     4.592000000
H     6.309000000    -2.460000000     5.071000000
O     2.471000000    -6.606000000     2.128000000
H     2.755000000    -5.718000000     1.910000000
H     1.990000000    -6.899000000     1.355000000
O     7.195000000    -1.404000000    -1.584000000
H     7.619000000    -0.860000000    -0.921000000
H     7.791000000    -1.377000000    -2.333000000
O     4.511000000    -1.364000000     2.964000000
H     4.788000000    -1.405000000     2.049000000
H     3.703000000    -1.877000000     2.993000000
O    -0.199000000    -6.853000000     6.182000000
H     0.357000000    -6.270000000     5.665000000
H     0.336000000    -7.634000000     6.321000000
O     3.340000000    -7.881000000    -1.168000000
H     2.551000000    -8.149000000    -1.638000000
H     3.866000000    -7.424000000    -1.824000000
O    -1.525000000    -8.887000000    -1.037000000
H    -1.108000000    -8.086000000    -0.718000000
H    -1.157000000    -9.582000000    -0.492000000
O     6.530000000    -6.432000000    -1.903000000
H     7.215000000    -6.874000000    -1.402000000
H     5.883000000    -6.171000000    -1.248000000
O     5.643000000    -2.462000000     0.316000000
H     6.053000000    -2.244000000    -0.521000000
H     5.152000000    -3.265000000     0.140000000
