215
-1446.72703
C    -2.419000000    -2.998000000     4.065000000
H    -3.113000000    -3.354000000     3.308000000
C    -2.131000000    -1.640000000     4.165000000
C    -1.104000000    -1.242000000     5.086000000
H    -0.867000000    -0.187000000     5.200000000
C    -2.853000000    -0.549000000     3.313000000
O    -4.144000000    -1.000000000     2.941000000
H    -2.298000000    -0.467000000     2.367000000
O    -2.758000000     0.791000000     3.903000000
C    -2.753000000     1.970000000     3.207000000
C    -1.525000000     2.622000000     3.288000000
H    -0.721000000     2.172000000     3.864000000
C    -1.229000000     3.762000000     2.520000000
O     0.032000000     4.300000000     2.696000000
C    -2.170000000     4.186000000     1.551000000
C    -1.754000000     5.311000000     0.582000000
H    -2.725000000     5.660000000     0.224000000
C    -0.989000000     4.804000000    -0.624000000
C    -1.633000000     4.458000000    -1.789000000
H    -2.683000000     4.732000000    -1.860000000
H    -1.244000000     6.041000000     1.215000000
C    -3.361000000     3.466000000     1.323000000
H    -4.101000000     3.763000000     0.584000000
C    -3.665000000     2.375000000     2.198000000
C    -4.966000000     1.647000000     1.941000000
H    -5.627000000     2.318000000     1.387000000
H    -5.470000000     1.400000000     2.877000000
C    -4.696000000     0.380000000     1.068000000
C    -4.719000000     0.574000000    -0.351000000
H    -5.201000000     1.454000000    -0.769000000
C    -4.341000000    -0.857000000     1.598000000
C    -4.082000000    -1.920000000     0.734000000
H    -3.821000000    -2.876000000     1.180000000
C    -4.195000000    -1.795000000    -0.656000000
O    -3.675000000    -2.807000000    -1.448000000
C    -2.372000000    -2.559000000    -2.113000000
C    -1.485000000    -3.818000000    -1.922000000
C    -0.478000000    -4.088000000    -2.841000000
H    -0.265000000    -3.328000000    -3.588000000
C    -1.603000000    -4.648000000    -0.796000000
H    -2.375000000    -4.473000000    -0.052000000
O    -2.590000000    -2.097000000    -3.444000000
H    -1.994000000    -1.774000000    -1.442000000
C    -4.515000000    -0.536000000    -1.222000000
C    -4.697000000    -0.288000000    -2.696000000
H    -5.442000000     0.460000000    -2.974000000
H    -5.066000000    -1.218000000    -3.133000000
C    -3.367000000     0.175000000    -3.303000000
C    -3.085000000     1.496000000    -3.472000000
H    -3.801000000     2.250000000    -3.154000000
C    -2.336000000    -0.758000000    -3.595000000
C    -1.213000000    -0.342000000    -4.330000000
H    -0.465000000    -1.069000000    -4.637000000
C    -0.900000000     1.050000000    -4.445000000
O     0.379000000     1.238000000    -4.823000000
C     1.232000000     1.708000000    -3.753000000
C     2.651000000     1.198000000    -3.931000000
C     2.872000000    -0.090000000    -4.545000000
H     1.981000000    -0.694000000    -4.702000000
C     3.744000000     1.969000000    -3.592000000
H     3.695000000     2.983000000    -3.203000000
O     1.251000000     3.183000000    -3.745000000
H     0.814000000     1.417000000    -2.779000000
C    -1.907000000     1.950000000    -4.002000000
C    -1.688000000     3.479000000    -4.095000000
H    -2.662000000     3.970000000    -4.045000000
H    -1.079000000     3.786000000    -4.948000000
C    -0.904000000     3.946000000    -2.863000000
C     0.465000000     3.743000000    -2.716000000
C     1.178000000     4.096000000    -1.584000000
H     2.225000000     3.805000000    -1.579000000
C     0.444000000     4.591000000    -0.496000000
O     1.103000000     4.789000000     0.688000000
C     0.931000000     3.819000000     1.701000000
H     0.543000000     2.888000000     1.262000000
C     2.294000000     3.376000000     2.230000000
C     2.314000000     2.490000000     3.350000000
H     1.424000000     2.272000000     3.934000000
C     3.494000000     3.661000000     1.534000000
H     3.541000000     4.308000000     0.662000000
C     4.727000000     3.134000000     1.962000000
O     5.951000000     3.412000000     1.370000000
C     4.721000000     2.271000000     3.093000000
H     5.632000000     1.786000000     3.435000000
C     3.506000000     1.994000000     3.773000000
O     3.668000000     1.137000000     4.887000000
C     2.687000000     0.899000000     5.784000000
C     2.023000000    -0.285000000     5.731000000
H     2.263000000    -0.976000000     4.928000000
C     2.407000000     1.768000000     6.874000000
H     2.945000000     2.712000000     6.851000000
C     1.433000000     1.491000000     7.812000000
H     1.264000000     2.125000000     8.679000000
C     0.757000000     0.267000000     7.807000000
H     0.107000000    -0.050000000     8.619000000
C     1.170000000    -0.635000000     6.829000000
O     0.576000000    -1.865000000     6.835000000
C    -0.423000000    -2.219000000     5.887000000
C    -0.801000000    -3.558000000     5.736000000
H    -0.385000000    -4.391000000     6.296000000
C    -1.749000000    -3.929000000     4.834000000
O    -2.031000000    -5.278000000     4.688000000
C    -2.327000000    -5.958000000     3.521000000
C    -1.608000000    -5.943000000     2.322000000
H    -0.672000000    -5.393000000     2.269000000
C    -3.595000000    -6.620000000     3.486000000
H    -4.211000000    -6.576000000     4.380000000
C    -4.061000000    -7.358000000     2.364000000
H    -4.991000000    -7.900000000     2.514000000
C    -3.208000000    -7.486000000     1.274000000
H    -3.489000000    -8.178000000     0.484000000
C    -2.038000000    -6.735000000     1.238000000
O    -1.237000000    -6.845000000     0.133000000
C    -0.918000000    -5.875000000    -0.776000000
C     0.125000000    -6.071000000    -1.632000000
H     0.616000000    -7.038000000    -1.559000000
C     0.396000000    -5.152000000    -2.711000000
O     1.480000000    -5.320000000    -3.593000000
C     1.720000000    -4.367000000    -4.586000000
C     2.903000000    -3.612000000    -4.526000000
H     3.564000000    -3.735000000    -3.672000000
C     0.925000000    -4.272000000    -5.703000000
H     0.041000000    -4.887000000    -5.853000000
C     1.242000000    -3.427000000    -6.728000000
H     0.707000000    -3.369000000    -7.672000000
C     2.376000000    -2.599000000    -6.656000000
H     2.744000000    -1.918000000    -7.418000000
C     3.251000000    -2.721000000    -5.551000000
O     4.258000000    -1.785000000    -5.370000000
C     4.141000000    -0.586000000    -4.765000000
C     5.192000000     0.185000000    -4.318000000
H     6.190000000    -0.209000000    -4.493000000
C     4.980000000     1.418000000    -3.696000000
O     6.021000000     2.106000000    -3.148000000
C     5.946000000     3.121000000    -2.259000000
C     6.001000000     4.425000000    -2.665000000
H     5.969000000     4.562000000    -3.742000000
C     5.950000000     5.484000000    -1.743000000
H     5.931000000     6.538000000    -2.007000000
C     6.035000000     5.166000000    -0.380000000
H     5.943000000     5.925000000     0.393000000
C     6.031000000     3.792000000     0.001000000
C     5.963000000     2.805000000    -0.936000000
H     5.957000000     1.757000000    -0.646000000
C     1.360000000    -0.677000000     1.309000000
H     1.904000000    -1.105000000     2.147000000
C     0.293000000     0.199000000     1.373000000
H     0.122000000     0.625000000     2.358000000
C    -0.400000000     0.543000000     0.233000000
H    -1.315000000     1.137000000     0.340000000
C    -0.008000000     0.072000000    -1.039000000
H    -0.650000000     0.240000000    -1.900000000
C     1.058000000    -0.781000000    -1.112000000
H     1.472000000    -1.239000000    -2.006000000
C     1.698000000    -1.211000000     0.055000000
C     2.800000000    -2.293000000     0.096000000
O     3.086000000    -2.825000000    -0.961000000
O     3.104000000    -2.822000000     1.140000000
O     7.888000000    -4.999000000     1.099000000
H     8.696000000    -4.697000000     1.515000000
H     7.189000000    -4.649000000     1.651000000
O     3.421000000    -7.098000000    -4.313000000
H     4.304000000    -7.194000000    -3.957000000
H     3.258000000    -6.155000000    -4.298000000
O     3.217000000    -3.269000000     3.866000000
H     2.751000000    -4.105000000     3.859000000
H     3.011000000    -2.873000000     3.019000000
O     6.793000000    -3.263000000    -3.366000000
H     6.513000000    -3.917000000    -2.726000000
H     6.297000000    -2.477000000    -3.137000000
O     6.839000000    -5.232000000     4.292000000
H     6.278000000    -5.768000000     3.732000000
H     6.540000000    -4.336000000     4.143000000
O     0.800000000    -9.452000000     1.294000000
H     0.747000000    -8.635000000     0.796000000
H     0.854000000   -10.136000000     0.626000000
O     4.517000000    -5.768000000     3.040000000
H     4.041000000    -5.336000000     2.331000000
H     4.214000000    -6.676000000     3.013000000
O     3.534000000    -5.520000000    -0.939000000
H     3.185000000    -4.637000000    -0.817000000
H     4.483000000    -5.400000000    -0.970000000
O     4.626000000    -2.646000000     6.235000000
H     5.495000000    -2.677000000     5.834000000
H     4.045000000    -2.370000000     5.526000000
O     2.005000000    -6.261000000     4.589000000
H     1.319000000    -6.753000000     5.041000000
H     2.044000000    -6.652000000     3.716000000
O     8.296000000    -1.015000000     1.875000000
H     8.397000000    -0.296000000     2.499000000
H     7.529000000    -1.496000000     2.184000000
O     9.976000000    -1.437000000    -0.019000000
H     9.252000000    -1.341000000     0.600000000
H     9.744000000    -0.865000000    -0.750000000
O     1.797000000    -5.387000000     1.338000000
H     1.932000000    -4.440000000     1.354000000
H     2.142000000    -5.664000000     0.490000000
O     7.992000000    -0.322000000    -1.777000000
H     7.052000000    -0.487000000    -1.856000000
H     8.079000000     0.625000000    -1.879000000
O     5.647000000    -2.100000000     2.464000000
H     5.251000000    -2.041000000     3.333000000
H     4.905000000    -2.203000000     1.869000000
O     2.230000000    -8.908000000    -1.778000000
H     2.383000000    -8.127000000    -2.310000000
H     1.336000000    -9.174000000    -1.993000000
O     4.133000000    -8.096000000     1.164000000
H     4.868000000    -8.699000000     1.276000000
H     4.008000000    -8.043000000     0.216000000
O     6.395000000    -5.400000000    -1.155000000
H     6.501000000    -6.349000000    -1.217000000
H     6.923000000    -5.148000000    -0.398000000
O     5.272000000    -1.298000000    -1.505000000
H     4.497000000    -1.856000000    -1.567000000
H     5.297000000    -1.023000000    -0.588000000
