215
-1455.60177
C    -2.391000000    -3.118000000     3.515000000
H    -3.189000000    -3.270000000     2.793000000
C    -1.997000000    -1.803000000     3.830000000
C    -0.830000000    -1.599000000     4.506000000
H    -0.401000000    -0.604000000     4.595000000
C    -2.797000000    -0.600000000     3.269000000
O    -4.156000000    -0.938000000     2.869000000
H    -2.279000000    -0.389000000     2.321000000
O    -2.897000000     0.557000000     4.162000000
C    -2.646000000     1.787000000     3.538000000
C    -1.350000000     2.255000000     3.673000000
H    -0.653000000     1.702000000     4.298000000
C    -0.807000000     3.253000000     2.930000000
O     0.556000000     3.539000000     3.051000000
C    -1.646000000     3.959000000     2.086000000
C    -1.127000000     5.191000000     1.296000000
H    -2.095000000     5.621000000     1.028000000
C    -0.422000000     4.844000000    -0.063000000
C    -1.125000000     4.671000000    -1.288000000
H    -2.207000000     4.757000000    -1.332000000
H    -0.644000000     5.872000000     1.999000000
C    -3.010000000     3.581000000     1.935000000
H    -3.714000000     4.161000000     1.343000000
C    -3.481000000     2.478000000     2.616000000
C    -4.845000000     1.891000000     2.291000000
H    -5.496000000     2.606000000     1.784000000
H    -5.400000000     1.588000000     3.182000000
C    -4.710000000     0.804000000     1.244000000
C    -4.810000000     1.117000000    -0.092000000
H    -4.810000000     2.188000000    -0.277000000
C    -4.504000000    -0.582000000     1.584000000
C    -4.528000000    -1.552000000     0.566000000
H    -4.322000000    -2.600000000     0.767000000
C    -4.589000000    -1.214000000    -0.738000000
O    -4.460000000    -2.211000000    -1.752000000
C    -3.119000000    -2.153000000    -2.310000000
C    -2.389000000    -3.479000000    -2.449000000
C    -1.244000000    -3.564000000    -3.244000000
H    -0.940000000    -2.803000000    -3.959000000
C    -2.566000000    -4.475000000    -1.411000000
H    -3.412000000    -4.366000000    -0.737000000
O    -3.161000000    -1.315000000    -3.465000000
H    -2.538000000    -1.544000000    -1.601000000
C    -4.781000000     0.173000000    -1.082000000
C    -4.923000000     0.646000000    -2.571000000
H    -5.564000000     1.530000000    -2.528000000
H    -5.388000000    -0.111000000    -3.206000000
C    -3.586000000     1.047000000    -3.102000000
C    -3.043000000     2.330000000    -3.050000000
H    -3.766000000     3.099000000    -2.790000000
C    -2.749000000     0.010000000    -3.512000000
C    -1.474000000     0.172000000    -4.006000000
H    -0.794000000    -0.592000000    -4.374000000
C    -0.939000000     1.414000000    -4.018000000
O     0.376000000     1.559000000    -4.422000000
C     1.371000000     1.951000000    -3.431000000
C     2.663000000     1.312000000    -3.781000000
C     2.725000000     0.064000000    -4.430000000
H     1.784000000    -0.418000000    -4.680000000
C     3.867000000     1.802000000    -3.346000000
H     3.887000000     2.736000000    -2.792000000
O     1.493000000     3.369000000    -3.452000000
H     1.115000000     1.656000000    -2.402000000
C    -1.770000000     2.540000000    -3.712000000
C    -1.302000000     3.961000000    -3.743000000
H    -2.096000000     4.711000000    -3.729000000
H    -0.665000000     4.099000000    -4.619000000
C    -0.462000000     4.268000000    -2.440000000
C     0.909000000     4.083000000    -2.390000000
C     1.616000000     4.177000000    -1.179000000
H     2.600000000     3.715000000    -1.167000000
C     0.956000000     4.575000000    -0.012000000
O     1.637000000     4.481000000     1.199000000
C     1.412000000     3.245000000     1.906000000
H     0.965000000     2.487000000     1.245000000
C     2.744000000     2.736000000     2.304000000
C     2.835000000     2.024000000     3.505000000
H     1.930000000     1.939000000     4.101000000
C     3.912000000     2.915000000     1.527000000
H     3.833000000     3.507000000     0.619000000
C     5.155000000     2.542000000     2.123000000
O     6.340000000     2.710000000     1.462000000
C     5.192000000     1.943000000     3.387000000
H     6.145000000     1.834000000     3.897000000
C     4.005000000     1.618000000     4.089000000
O     4.140000000     1.116000000     5.340000000
C     3.026000000     0.530000000     6.023000000
C     2.588000000    -0.752000000     5.703000000
H     3.067000000    -1.349000000     4.931000000
C     2.319000000     1.312000000     6.946000000
H     2.672000000     2.313000000     7.181000000
C     1.130000000     0.846000000     7.522000000
H     0.500000000     1.515000000     8.102000000
C     0.661000000    -0.435000000     7.222000000
H    -0.284000000    -0.837000000     7.578000000
C     1.401000000    -1.231000000     6.370000000
O     0.850000000    -2.440000000     6.042000000
C    -0.275000000    -2.639000000     5.254000000
C    -0.927000000    -3.893000000     5.222000000
H    -0.534000000    -4.708000000     5.825000000
C    -1.896000000    -4.174000000     4.255000000
O    -2.408000000    -5.457000000     4.137000000
C    -2.815000000    -6.026000000     2.992000000
C    -2.052000000    -5.913000000     1.853000000
H    -1.149000000    -5.314000000     1.930000000
C    -3.977000000    -6.782000000     3.045000000
H    -4.529000000    -6.902000000     3.973000000
C    -4.403000000    -7.423000000     1.909000000
H    -5.255000000    -8.078000000     2.070000000
C    -3.609000000    -7.438000000     0.814000000
H    -3.872000000    -8.127000000     0.015000000
C    -2.470000000    -6.675000000     0.717000000
O    -1.869000000    -6.716000000    -0.516000000
C    -1.717000000    -5.597000000    -1.332000000
C    -0.632000000    -5.679000000    -2.218000000
H     0.008000000    -6.549000000    -2.095000000
C    -0.424000000    -4.666000000    -3.134000000
O     0.606000000    -4.926000000    -3.956000000
C     1.103000000    -4.121000000    -4.928000000
C     2.277000000    -3.377000000    -4.680000000
H     2.807000000    -3.490000000    -3.737000000
C     0.412000000    -3.951000000    -6.128000000
H    -0.572000000    -4.402000000    -6.235000000
C     0.882000000    -3.093000000    -7.107000000
H     0.382000000    -3.069000000    -8.072000000
C     2.076000000    -2.427000000    -6.855000000
H     2.477000000    -1.851000000    -7.685000000
C     2.764000000    -2.520000000    -5.617000000
O     3.911000000    -1.801000000    -5.358000000
C     3.918000000    -0.553000000    -4.767000000
C     5.077000000    -0.040000000    -4.395000000
H     6.010000000    -0.572000000    -4.561000000
C     5.074000000     1.169000000    -3.661000000
O     6.248000000     1.633000000    -3.257000000
C     6.437000000     2.613000000    -2.236000000
C     6.649000000     3.910000000    -2.511000000
H     6.664000000     4.145000000    -3.572000000
C     6.801000000     4.850000000    -1.479000000
H     7.069000000     5.897000000    -1.594000000
C     6.744000000     4.439000000    -0.128000000
H     7.015000000     5.207000000     0.591000000
C     6.453000000     3.105000000     0.176000000
C     6.332000000     2.196000000    -0.881000000
H     6.044000000     1.159000000    -0.726000000
C     1.575000000    -0.411000000     1.496000000
H     1.879000000    -0.277000000     2.531000000
C     0.386000000     0.066000000     1.036000000
H    -0.206000000     0.614000000     1.766000000
C    -0.088000000    -0.044000000    -0.233000000
H    -1.058000000     0.345000000    -0.578000000
C     0.871000000    -0.463000000    -1.160000000
H     0.509000000    -0.605000000    -2.175000000
C     2.141000000    -0.929000000    -0.776000000
H     2.890000000    -1.256000000    -1.493000000
C     2.472000000    -0.914000000     0.586000000
C     3.830000000    -1.395000000     1.018000000
O     4.749000000    -1.511000000     0.200000000
O     4.063000000    -1.723000000     2.127000000
O     7.698000000    -5.753000000     2.991000000
H     7.799000000    -6.667000000     2.727000000
H     6.788000000    -5.543000000     2.782000000
O     8.450000000    -2.357000000     4.091000000
H     8.614000000    -1.865000000     4.895000000
H     7.750000000    -1.874000000     3.653000000
O     6.700000000    -0.551000000     5.909000000
H     6.387000000    -1.443000000     6.063000000
H     6.069000000    -0.180000000     5.292000000
O     4.749000000    -3.229000000     7.103000000
H     3.879000000    -3.591000000     7.267000000
H     5.042000000    -3.663000000     6.301000000
O     3.339000000    -5.907000000    -1.892000000
H     2.460000000    -5.554000000    -1.760000000
H     3.241000000    -6.850000000    -1.764000000
O     7.969000000    -1.538000000    -2.849000000
H     8.193000000    -2.072000000    -2.087000000
H     7.018000000    -1.616000000    -2.924000000
O     6.474000000    -1.072000000     2.797000000
H     6.972000000    -1.116000000     1.980000000
H     5.571000000    -1.254000000     2.536000000
O     5.278000000    -2.689000000    -2.257000000
H     4.891000000    -1.970000000    -1.758000000
H     5.637000000    -3.276000000    -1.592000000
O     2.194000000    -7.753000000     0.531000000
H     2.595000000    -7.433000000     1.339000000
H     2.502000000    -8.656000000     0.451000000
O     5.641000000    -4.173000000     1.718000000
H     5.804000000    -4.741000000     0.965000000
H     5.169000000    -3.424000000     1.355000000
O     8.245000000    -4.029000000    -0.745000000
H     8.765000000    -4.266000000     0.023000000
H     7.534000000    -4.670000000    -0.759000000
O     5.212000000    -4.545000000    -4.312000000
H     5.042000000    -3.647000000    -4.025000000
H     5.240000000    -5.054000000    -3.502000000
O     3.600000000    -6.372000000     2.733000000
H     3.144000000    -5.544000000     2.884000000
H     4.467000000    -6.114000000     2.420000000
O     2.705000000    -3.715000000     3.032000000
H     3.307000000    -2.992000000     2.856000000
H     1.842000000    -3.369000000     2.806000000
O     9.204000000     1.264000000     0.577000000
H     8.339000000     0.862000000     0.500000000
H     9.782000000     0.686000000     0.080000000
O     9.389000000     1.415000000     3.379000000
H     8.433000000     1.449000000     3.399000000
H     9.619000000     1.655000000     2.481000000
O     5.909000000    -5.281000000    -0.824000000
H     5.079000000    -5.607000000    -1.171000000
H     6.445000000    -6.065000000    -0.707000000
O     6.077000000    -3.881000000     4.899000000
H     5.635000000    -3.703000000     4.069000000
H     7.005000000    -3.940000000     4.668000000
O     7.320000000    -0.964000000     0.225000000
H     6.376000000    -0.973000000     0.379000000
H     7.485000000    -1.751000000    -0.295000000
