215
-1460.98771
C    -2.157000000    -2.942000000     3.885000000
H    -2.902000000    -3.215000000     3.141000000
C    -1.904000000    -1.630000000     4.118000000
C    -0.841000000    -1.322000000     4.949000000
H    -0.594000000    -0.281000000     5.145000000
C    -2.678000000    -0.538000000     3.283000000
O    -3.963000000    -0.964000000     2.851000000
H    -1.980000000    -0.385000000     2.447000000
O    -2.811000000     0.646000000     4.023000000
C    -2.588000000     1.814000000     3.363000000
C    -1.333000000     2.377000000     3.548000000
H    -0.665000000     1.897000000     4.258000000
C    -1.056000000     3.500000000     2.848000000
O     0.262000000     3.897000000     2.944000000
C    -2.016000000     4.038000000     1.914000000
C    -1.594000000     5.223000000     1.064000000
H    -2.400000000     5.835000000     0.653000000
C    -0.809000000     4.865000000    -0.176000000
C    -1.534000000     4.480000000    -1.293000000
H    -2.619000000     4.417000000    -1.268000000
H    -0.961000000     5.930000000     1.605000000
C    -3.224000000     3.488000000     1.785000000
H    -3.901000000     3.867000000     1.024000000
C    -3.564000000     2.332000000     2.460000000
C    -4.920000000     1.663000000     2.060000000
H    -5.662000000     2.411000000     1.770000000
H    -5.299000000     1.351000000     3.035000000
C    -4.696000000     0.529000000     1.098000000
C    -4.912000000     0.766000000    -0.203000000
H    -5.309000000     1.757000000    -0.409000000
C    -4.281000000    -0.731000000     1.515000000
C    -4.013000000    -1.754000000     0.617000000
H    -3.374000000    -2.562000000     0.964000000
C    -4.309000000    -1.460000000    -0.718000000
O    -3.972000000    -2.457000000    -1.603000000
C    -2.689000000    -2.390000000    -2.179000000
C    -1.943000000    -3.700000000    -2.247000000
C    -0.804000000    -3.829000000    -3.086000000
H    -0.582000000    -3.016000000    -3.772000000
C    -2.136000000    -4.677000000    -1.258000000
H    -2.961000000    -4.513000000    -0.569000000
O    -2.957000000    -1.839000000    -3.530000000
H    -2.062000000    -1.607000000    -1.728000000
C    -4.738000000    -0.251000000    -1.161000000
C    -5.004000000     0.048000000    -2.649000000
H    -5.634000000     0.916000000    -2.854000000
H    -5.385000000    -0.795000000    -3.230000000
C    -3.634000000     0.463000000    -3.276000000
C    -3.287000000     1.784000000    -3.235000000
H    -3.967000000     2.556000000    -2.884000000
C    -2.689000000    -0.511000000    -3.662000000
C    -1.523000000    -0.087000000    -4.265000000
H    -0.728000000    -0.784000000    -4.519000000
C    -1.199000000     1.246000000    -4.303000000
O     0.031000000     1.628000000    -4.644000000
C     1.081000000     1.903000000    -3.678000000
C     2.447000000     1.394000000    -4.139000000
C     2.564000000     0.100000000    -4.584000000
H     1.649000000    -0.440000000    -4.814000000
C     3.658000000     2.079000000    -3.776000000
H     3.548000000     3.015000000    -3.234000000
O     1.097000000     3.356000000    -3.505000000
H     0.875000000     1.526000000    -2.666000000
C    -2.061000000     2.243000000    -3.790000000
C    -1.755000000     3.712000000    -3.676000000
H    -2.600000000     4.404000000    -3.694000000
H    -1.128000000     4.000000000    -4.522000000
C    -0.933000000     4.009000000    -2.434000000
C     0.443000000     3.835000000    -2.447000000
C     1.199000000     4.161000000    -1.267000000
H     2.270000000     3.979000000    -1.274000000
C     0.559000000     4.736000000    -0.175000000
O     1.263000000     4.838000000     1.026000000
C     1.164000000     3.646000000     1.856000000
H     0.694000000     2.898000000     1.200000000
C     2.534000000     3.070000000     2.340000000
C     2.739000000     2.943000000     3.698000000
H     1.910000000     3.167000000     4.364000000
C     3.566000000     2.760000000     1.409000000
H     3.383000000     2.831000000     0.339000000
C     4.756000000     2.205000000     1.927000000
O     5.718000000     1.657000000     1.144000000
C     4.856000000     1.887000000     3.296000000
H     5.682000000     1.266000000     3.633000000
C     3.870000000     2.286000000     4.165000000
O     3.864000000     1.859000000     5.507000000
C     2.867000000     1.154000000     6.126000000
C     2.535000000    -0.159000000     5.878000000
H     3.055000000    -0.764000000     5.140000000
C     2.135000000     1.921000000     7.060000000
H     2.452000000     2.940000000     7.266000000
C     0.974000000     1.362000000     7.712000000
H     0.460000000     1.916000000     8.494000000
C     0.635000000     0.029000000     7.441000000
H    -0.251000000    -0.418000000     7.884000000
C     1.419000000    -0.696000000     6.532000000
O     1.057000000    -1.975000000     6.274000000
C    -0.064000000    -2.310000000     5.560000000
C    -0.400000000    -3.659000000     5.340000000
H     0.193000000    -4.426000000     5.830000000
C    -1.489000000    -3.967000000     4.532000000
O    -1.922000000    -5.273000000     4.438000000
C    -2.479000000    -5.825000000     3.321000000
C    -1.609000000    -5.849000000     2.192000000
H    -0.557000000    -5.618000000     2.336000000
C    -3.723000000    -6.378000000     3.258000000
H    -4.303000000    -6.398000000     4.177000000
C    -4.225000000    -6.844000000     2.009000000
H    -5.182000000    -7.356000000     1.957000000
C    -3.382000000    -6.898000000     0.862000000
H    -3.714000000    -7.445000000    -0.017000000
C    -2.065000000    -6.351000000     1.014000000
O    -1.172000000    -6.549000000    -0.065000000
C    -1.179000000    -5.712000000    -1.150000000
C    -0.145000000    -5.851000000    -1.979000000
H     0.418000000    -6.775000000    -1.872000000
C     0.051000000    -4.932000000    -3.041000000
O     1.055000000    -5.059000000    -3.958000000
C     1.488000000    -4.246000000    -4.977000000
C     2.594000000    -3.305000000    -4.797000000
H     3.062000000    -3.156000000    -3.828000000
C     0.808000000    -4.302000000    -6.188000000
H    -0.067000000    -4.943000000    -6.260000000
C     1.181000000    -3.470000000    -7.211000000
H     0.634000000    -3.408000000    -8.148000000
C     2.231000000    -2.523000000    -7.044000000
H     2.467000000    -1.839000000    -7.856000000
C     2.943000000    -2.487000000    -5.855000000
O     3.892000000    -1.534000000    -5.732000000
C     3.826000000    -0.407000000    -4.922000000
C     4.967000000     0.289000000    -4.621000000
H     5.952000000    -0.170000000    -4.650000000
C     4.910000000     1.546000000    -4.050000000
O     6.092000000     2.132000000    -3.670000000
C     6.250000000     2.558000000    -2.383000000
C     6.704000000     3.878000000    -2.194000000
H     6.956000000     4.424000000    -3.099000000
C     6.910000000     4.384000000    -0.941000000
H     7.378000000     5.362000000    -0.873000000
C     6.615000000     3.634000000     0.171000000
H     6.661000000     4.105000000     1.149000000
C     6.156000000     2.331000000     0.044000000
C     5.971000000     1.759000000    -1.199000000
H     5.508000000     0.787000000    -1.348000000
C     2.203000000    -0.692000000     1.642000000
H     2.860000000    -0.871000000     2.489000000
C     1.013000000    -0.021000000     1.805000000
H     0.664000000     0.313000000     2.779000000
C     0.195000000     0.198000000     0.683000000
H    -0.707000000     0.878000000     0.807000000
C     0.555000000    -0.215000000    -0.566000000
H    -0.151000000    -0.123000000    -1.388000000
C     1.779000000    -0.789000000    -0.697000000
H     2.042000000    -1.138000000    -1.693000000
C     2.627000000    -1.039000000     0.398000000
C     3.902000000    -1.823000000     0.227000000
O     4.393000000    -2.108000000    -0.882000000
O     4.472000000    -2.249000000     1.204000000
O     6.081000000    -6.901000000     2.165000000
H     6.448000000    -6.798000000     1.287000000
H     6.427000000    -6.157000000     2.658000000
O     7.008000000    -1.020000000     5.655000000
H     6.409000000    -1.649000000     6.058000000
H     6.736000000    -0.984000000     4.738000000
O     4.428000000    -7.024000000    -0.648000000
H     5.263000000    -7.280000000    -0.256000000
H     4.009000000    -6.477000000     0.016000000
O     8.425000000    -2.504000000    -3.116000000
H     8.799000000    -3.383000000    -3.182000000
H     7.480000000    -2.642000000    -3.166000000
O     6.231000000    -1.540000000     3.053000000
H     6.640000000    -2.403000000     3.003000000
H     5.583000000    -1.541000000     2.348000000
O     5.702000000    -2.539000000    -2.972000000
H     5.100000000    -2.170000000    -2.326000000
H     5.532000000    -3.481000000    -2.947000000
O     3.429000000    -6.263000000     1.905000000
H     4.347000000    -6.421000000     2.123000000
H     3.155000000    -5.572000000     2.508000000
O     4.964000000    -5.246000000    -5.665000000
H     5.754000000    -5.519000000    -6.132000000
H     5.261000000    -5.076000000    -4.771000000
O     6.088000000    -4.382000000     0.002000000
H     6.230000000    -3.900000000    -0.813000000
H     5.460000000    -3.849000000     0.489000000
O     9.262000000    -5.639000000    -0.383000000
H     9.554000000    -6.444000000     0.045000000
H     8.308000000    -5.715000000    -0.409000000
O     6.549000000    -2.429000000    -6.469000000
H     5.932000000    -2.609000000    -5.760000000
H     6.416000000    -1.503000000    -6.672000000
O     3.971000000    -5.133000000     5.420000000
H     3.845000000    -4.499000000     4.714000000
H     3.850000000    -4.625000000     6.223000000
O     3.483000000    -3.737000000     3.297000000
H     4.255000000    -3.541000000     2.766000000
H     2.752000000    -3.365000000     2.804000000
O     8.991000000     0.342000000     0.607000000
H     8.178000000    -0.019000000     0.255000000
H     9.681000000    -0.063000000     0.080000000
O     8.657000000     0.863000000     3.323000000
H     7.901000000     0.350000000     3.608000000
H     8.803000000     0.593000000     2.417000000
O     3.329000000    -7.444000000    -3.244000000
H     3.471000000    -6.590000000    -3.652000000
H     3.669000000    -7.345000000    -2.355000000
O     5.617000000    -5.281000000    -2.844000000
H     5.130000000    -5.596000000    -2.082000000
H     6.117000000    -6.042000000    -3.140000000
O     7.248000000    -4.510000000     2.437000000
H     8.205000000    -4.501000000     2.450000000
H     7.018000000    -4.250000000     1.545000000
O     6.962000000    -1.230000000    -0.391000000
H     6.088000000    -1.535000000    -0.144000000
H     7.026000000    -1.416000000    -1.327000000
