215
-1456.60384
C    -1.113000000    -2.803000000     4.267000000
H    -2.028000000    -3.345000000     4.042000000
C    -0.955000000    -1.446000000     3.924000000
C     0.307000000    -0.848000000     4.213000000
H     0.363000000     0.188000000     3.889000000
C    -2.058000000    -0.571000000     3.241000000
O    -3.326000000    -1.177000000     3.410000000
H    -1.744000000    -0.531000000     2.188000000
O    -2.029000000     0.775000000     3.782000000
C    -2.177000000     1.853000000     2.903000000
C    -1.091000000     2.779000000     2.805000000
H    -0.159000000     2.661000000     3.352000000
C    -1.165000000     3.780000000     1.835000000
O    -0.144000000     4.597000000     1.732000000
C    -2.305000000     3.900000000     1.053000000
C    -2.360000000     4.978000000    -0.016000000
H    -3.427000000     5.170000000    -0.151000000
C    -1.705000000     4.586000000    -1.360000000
C    -2.518000000     3.904000000    -2.358000000
H    -3.583000000     3.700000000    -2.282000000
H    -1.862000000     5.913000000     0.249000000
C    -3.387000000     3.072000000     1.173000000
H    -4.292000000     3.212000000     0.586000000
C    -3.385000000     2.078000000     2.133000000
C    -4.603000000     1.174000000     2.415000000
H    -5.517000000     1.706000000     2.143000000
H    -4.713000000     1.060000000     3.496000000
C    -4.555000000    -0.149000000     1.699000000
C    -4.946000000    -0.136000000     0.369000000
H    -5.206000000     0.770000000    -0.172000000
C    -4.059000000    -1.286000000     2.264000000
C    -4.016000000    -2.439000000     1.531000000
H    -3.578000000    -3.337000000     1.961000000
C    -4.389000000    -2.433000000     0.197000000
O    -4.150000000    -3.511000000    -0.563000000
C    -2.872000000    -3.524000000    -1.186000000
C    -1.916000000    -4.704000000    -0.924000000
C    -0.662000000    -4.669000000    -1.536000000
H    -0.324000000    -3.818000000    -2.122000000
C    -2.225000000    -5.622000000     0.084000000
H    -3.122000000    -5.502000000     0.686000000
O    -2.902000000    -3.195000000    -2.643000000
H    -2.271000000    -2.661000000    -0.864000000
C    -4.894000000    -1.323000000    -0.397000000
C    -5.211000000    -1.384000000    -1.881000000
H    -6.041000000    -0.700000000    -2.072000000
H    -5.558000000    -2.365000000    -2.211000000
C    -3.938000000    -0.936000000    -2.628000000
C    -3.848000000     0.388000000    -3.106000000
H    -4.727000000     1.005000000    -2.941000000
C    -2.910000000    -1.811000000    -2.995000000
C    -1.753000000    -1.382000000    -3.608000000
H    -0.978000000    -2.135000000    -3.722000000
C    -1.621000000    -0.056000000    -4.012000000
O    -0.504000000     0.472000000    -4.683000000
C     0.351000000     1.409000000    -4.031000000
C     1.848000000     1.146000000    -4.136000000
C     2.209000000    -0.172000000    -3.889000000
H     1.385000000    -0.850000000    -3.677000000
C     2.838000000     2.046000000    -4.275000000
H     2.575000000     3.092000000    -4.406000000
O     0.136000000     2.721000000    -4.563000000
H     0.130000000     1.394000000    -2.953000000
C    -2.697000000     0.846000000    -3.838000000
C    -2.748000000     2.297000000    -4.258000000
H    -3.816000000     2.526000000    -4.290000000
H    -2.481000000     2.478000000    -5.302000000
C    -1.894000000     3.270000000    -3.465000000
C    -0.535000000     3.509000000    -3.641000000
C     0.230000000     4.187000000    -2.713000000
H     1.312000000     4.129000000    -2.803000000
C    -0.328000000     4.766000000    -1.580000000
O     0.423000000     5.133000000    -0.521000000
C     0.745000000     4.290000000     0.615000000
H     0.508000000     3.259000000     0.311000000
C     2.244000000     4.279000000     0.980000000
C     2.607000000     3.825000000     2.244000000
H     1.915000000     3.360000000     2.942000000
C     3.215000000     4.723000000     0.045000000
H     2.943000000     5.165000000    -0.910000000
C     4.571000000     4.719000000     0.437000000
O     5.605000000     5.136000000    -0.434000000
C     4.950000000     4.200000000     1.680000000
H     6.002000000     4.236000000     1.953000000
C     3.983000000     3.768000000     2.559000000
O     4.410000000     3.249000000     3.699000000
C     3.619000000     2.477000000     4.562000000
C     3.353000000     1.157000000     4.299000000
H     3.746000000     0.765000000     3.364000000
C     3.151000000     3.075000000     5.749000000
H     3.473000000     4.089000000     5.972000000
C     2.362000000     2.278000000     6.601000000
H     2.026000000     2.733000000     7.529000000
C     2.056000000     0.936000000     6.320000000
H     1.440000000     0.383000000     7.024000000
C     2.635000000     0.374000000     5.194000000
O     2.525000000    -0.958000000     4.995000000
C     1.332000000    -1.557000000     4.864000000
C     1.093000000    -2.892000000     5.261000000
H     1.820000000    -3.357000000     5.922000000
C    -0.090000000    -3.507000000     4.893000000
O    -0.210000000    -4.817000000     5.290000000
C    -0.927000000    -5.825000000     4.637000000
C    -0.970000000    -5.975000000     3.289000000
H    -0.464000000    -5.277000000     2.626000000
C    -1.784000000    -6.540000000     5.476000000
H    -1.934000000    -6.234000000     6.508000000
C    -2.442000000    -7.666000000     4.947000000
H    -3.149000000    -8.190000000     5.585000000
C    -2.394000000    -7.949000000     3.578000000
H    -3.084000000    -8.691000000     3.184000000
C    -1.612000000    -7.169000000     2.749000000
O    -1.584000000    -7.523000000     1.437000000
C    -1.276000000    -6.607000000     0.347000000
C     0.007000000    -6.521000000    -0.136000000
H     0.750000000    -7.258000000     0.158000000
C     0.327000000    -5.531000000    -1.117000000
O     1.577000000    -5.480000000    -1.685000000
C     1.841000000    -4.737000000    -2.785000000
C     2.803000000    -3.765000000    -2.776000000
H     3.261000000    -3.494000000    -1.829000000
C     1.236000000    -5.044000000    -3.985000000
H     0.442000000    -5.785000000    -4.036000000
C     1.577000000    -4.336000000    -5.160000000
H     1.084000000    -4.533000000    -6.108000000
C     2.463000000    -3.315000000    -5.075000000
H     2.775000000    -2.770000000    -5.962000000
C     3.032000000    -2.970000000    -3.885000000
O     3.884000000    -1.876000000    -3.815000000
C     3.546000000    -0.570000000    -4.007000000
C     4.604000000     0.399000000    -4.192000000
H     5.669000000     0.195000000    -4.269000000
C     4.181000000     1.719000000    -4.320000000
O     5.077000000     2.771000000    -4.456000000
C     4.966000000     3.949000000    -3.760000000
C     4.656000000     5.119000000    -4.419000000
H     4.355000000     5.076000000    -5.462000000
C     4.659000000     6.301000000    -3.750000000
H     4.168000000     7.156000000    -4.210000000
C     4.858000000     6.320000000    -2.373000000
H     4.869000000     7.257000000    -1.823000000
C     5.277000000     5.127000000    -1.736000000
C     5.274000000     3.922000000    -2.423000000
H     5.516000000     3.040000000    -1.835000000
C     1.340000000    -1.294000000     0.906000000
H     1.168000000    -2.320000000     1.223000000
C     0.248000000    -0.596000000     0.387000000
H    -0.752000000    -1.020000000     0.425000000
C     0.411000000     0.637000000    -0.252000000
H    -0.443000000     1.156000000    -0.810000000
C     1.710000000     1.208000000    -0.232000000
H     1.869000000     2.176000000    -0.699000000
C     2.729000000     0.617000000     0.462000000
H     3.651000000     1.175000000     0.605000000
C     2.548000000    -0.637000000     1.024000000
C     3.732000000    -1.278000000     1.812000000
O     4.780000000    -0.705000000     1.872000000
O     3.670000000    -2.418000000     2.329000000
O     6.396000000    -5.537000000     2.067000000
H     5.916000000    -6.113000000     2.662000000
H     5.713000000    -5.058000000     1.596000000
O     9.018000000    -2.582000000     2.455000000
H     8.520000000    -2.041000000     1.842000000
H     9.896000000    -2.625000000     2.076000000
O     7.324000000     3.873000000     4.189000000
H     6.421000000     3.766000000     4.489000000
H     7.798000000     3.147000000     4.594000000
O     7.616000000     1.182000000     3.277000000
H     7.054000000     0.454000000     3.542000000
H     7.274000000     1.451000000     2.425000000
O     7.257000000    -1.367000000     0.735000000
H     7.207000000    -2.114000000     0.140000000
H     6.429000000    -1.387000000     1.215000000
O     6.392000000     1.243000000     0.718000000
H     6.790000000     0.387000000     0.562000000
H     5.478000000     1.049000000     0.923000000
O     4.119000000    -4.495000000     0.590000000
H     4.099000000    -3.616000000     0.969000000
H     3.201000000    -4.699000000     0.410000000
O     4.762000000    -3.207000000     4.782000000
H     4.606000000    -2.874000000     3.898000000
H     4.269000000    -4.026000000     4.820000000
O     9.073000000    -4.448000000    -0.862000000
H     8.122000000    -4.408000000    -0.761000000
H     9.402000000    -4.599000000     0.024000000
O     4.033000000    -7.033000000     2.474000000
H     3.442000000    -7.665000000     2.883000000
H     3.466000000    -6.304000000     2.222000000
O     4.336000000    -1.974000000     7.416000000
H     3.595000000    -2.283000000     7.938000000
H     4.161000000    -2.302000000     6.534000000
O     9.180000000    -5.267000000     2.733000000
H     9.207000000    -4.359000000     3.034000000
H     8.355000000    -5.337000000     2.254000000
O     6.399000000    -3.788000000    -0.826000000
H     5.713000000    -4.274000000    -0.367000000
H     6.367000000    -4.119000000    -1.724000000
O     8.287000000     1.885000000    -1.014000000
H     7.666000000     1.691000000    -0.312000000
H     8.055000000     1.275000000    -1.714000000
O     3.413000000    -5.422000000     5.240000000
H     2.981000000    -5.468000000     6.093000000
H     3.906000000    -6.241000000     5.177000000
O     2.290000000    -4.892000000     2.838000000
H     2.784000000    -4.073000000     2.876000000
H     2.315000000    -5.228000000     3.734000000
O     6.853000000    -2.077000000    -3.577000000
H     7.161000000    -2.877000000    -3.152000000
H     5.908000000    -2.204000000    -3.669000000
O     7.200000000     0.143000000     6.638000000
H     6.664000000    -0.141000000     5.898000000
H     7.616000000     0.951000000     6.337000000
O     6.039000000    -0.906000000     4.167000000
H     5.518000000    -0.740000000     3.381000000
H     5.594000000    -1.635000000     4.600000000
