215
-1481.14014
C    -2.060000000    -2.818000000     4.762000000
H    -2.982000000    -3.267000000     4.402000000
C    -1.843000000    -1.499000000     4.672000000
C    -0.617000000    -0.982000000     5.099000000
H    -0.442000000     0.080000000     4.953000000
C    -2.703000000    -0.591000000     3.732000000
O    -3.969000000    -1.220000000     3.447000000
H    -2.126000000    -0.434000000     2.809000000
O    -2.991000000     0.798000000     4.234000000
C    -2.771000000     1.724000000     3.232000000
C    -1.631000000     2.502000000     3.131000000
H    -0.811000000     2.405000000     3.838000000
C    -1.549000000     3.461000000     2.178000000
O    -0.391000000     4.181000000     2.225000000
C    -2.617000000     3.758000000     1.353000000
C    -2.625000000     4.932000000     0.401000000
H    -3.660000000     5.172000000     0.148000000
C    -1.845000000     4.660000000    -0.855000000
C    -2.531000000     4.086000000    -1.885000000
H    -3.610000000     3.995000000    -1.789000000
H    -2.117000000     5.752000000     0.912000000
C    -3.830000000     2.977000000     1.508000000
H    -4.714000000     3.277000000     0.952000000
C    -3.927000000     1.987000000     2.429000000
C    -5.202000000     1.082000000     2.436000000
H    -6.055000000     1.610000000     2.003000000
H    -5.539000000     0.975000000     3.470000000
C    -4.909000000    -0.136000000     1.588000000
C    -5.158000000    -0.140000000     0.206000000
H    -5.629000000     0.683000000    -0.327000000
C    -4.317000000    -1.228000000     2.180000000
C    -3.900000000    -2.307000000     1.390000000
H    -3.398000000    -3.188000000     1.782000000
C    -4.056000000    -2.267000000     0.005000000
O    -3.415000000    -3.237000000    -0.700000000
C    -2.273000000    -2.890000000    -1.547000000
C    -1.163000000    -3.972000000    -1.462000000
C    -0.060000000    -4.040000000    -2.345000000
H    -0.128000000    -3.425000000    -3.239000000
C    -1.066000000    -4.885000000    -0.334000000
H    -1.937000000    -4.926000000     0.315000000
O    -2.632000000    -2.634000000    -2.927000000
H    -1.702000000    -2.029000000    -1.168000000
C    -4.698000000    -1.237000000    -0.627000000
C    -4.860000000    -1.135000000    -2.096000000
H    -5.799000000    -0.653000000    -2.376000000
H    -5.006000000    -2.127000000    -2.528000000
C    -3.688000000    -0.461000000    -2.726000000
C    -3.668000000     0.946000000    -2.919000000
H    -4.521000000     1.551000000    -2.624000000
C    -2.636000000    -1.265000000    -3.168000000
C    -1.565000000    -0.713000000    -3.847000000
H    -0.718000000    -1.329000000    -4.138000000
C    -1.526000000     0.673000000    -4.059000000
O    -0.407000000     1.084000000    -4.700000000
C     0.580000000     1.809000000    -3.982000000
C     1.941000000     1.394000000    -4.348000000
C     2.134000000     0.140000000    -5.012000000
H     1.259000000    -0.497000000    -5.109000000
C     3.043000000     2.277000000    -4.213000000
H     2.853000000     3.200000000    -3.672000000
O     0.277000000     3.237000000    -4.182000000
H     0.520000000     1.515000000    -2.924000000
C    -2.570000000     1.456000000    -3.668000000
C    -2.676000000     2.896000000    -4.049000000
H    -3.636000000     3.408000000    -4.146000000
H    -2.262000000     3.035000000    -5.050000000
C    -1.823000000     3.598000000    -3.001000000
C    -0.419000000     3.765000000    -3.120000000
C     0.267000000     4.382000000    -2.098000000
H     1.345000000     4.484000000    -2.198000000
C    -0.427000000     4.774000000    -0.930000000
O     0.409000000     4.989000000     0.198000000
C     0.555000000     3.876000000     1.155000000
H     0.228000000     2.961000000     0.640000000
C     1.974000000     3.732000000     1.614000000
C     2.251000000     3.200000000     2.911000000
H     1.503000000     3.011000000     3.677000000
C     3.041000000     3.845000000     0.663000000
H     2.810000000     4.121000000    -0.363000000
C     4.348000000     3.489000000     1.067000000
O     5.354000000     3.370000000     0.198000000
C     4.609000000     2.982000000     2.374000000
H     5.613000000     2.677000000     2.660000000
C     3.561000000     2.815000000     3.264000000
O     3.857000000     2.411000000     4.504000000
C     3.079000000     1.840000000     5.525000000
C     2.715000000     0.517000000     5.260000000
H     2.898000000    -0.019000000     4.332000000
C     2.768000000     2.482000000     6.704000000
H     3.066000000     3.520000000     6.829000000
C     2.019000000     1.776000000     7.631000000
H     1.699000000     2.232000000     8.564000000
C     1.485000000     0.485000000     7.342000000
H     0.760000000     0.054000000     8.028000000
C     2.030000000    -0.197000000     6.208000000
O     1.716000000    -1.527000000     5.875000000
C     0.392000000    -1.835000000     5.610000000
C     0.105000000    -3.219000000     5.804000000
H     0.816000000    -3.840000000     6.341000000
C    -1.168000000    -3.662000000     5.394000000
O    -1.310000000    -5.006000000     5.347000000
C    -1.462000000    -5.828000000     4.228000000
C    -0.646000000    -5.600000000     3.127000000
H     0.114000000    -4.823000000     3.138000000
C    -2.376000000    -6.883000000     4.264000000
H    -2.966000000    -7.022000000     5.166000000
C    -2.455000000    -7.705000000     3.089000000
H    -3.207000000    -8.490000000     3.089000000
C    -1.573000000    -7.572000000     2.049000000
H    -1.489000000    -8.156000000     1.136000000
C    -0.636000000    -6.559000000     2.116000000
O     0.347000000    -6.329000000     1.158000000
C     0.156000000    -5.547000000     0.012000000
C     1.237000000    -5.408000000    -0.846000000
H     2.158000000    -5.972000000    -0.723000000
C     1.140000000    -4.691000000    -2.016000000
O     2.261000000    -4.702000000    -2.851000000
C     2.318000000    -4.289000000    -4.187000000
C     2.861000000    -3.018000000    -4.440000000
H     3.342000000    -2.406000000    -3.681000000
C     1.714000000    -5.044000000    -5.144000000
H     1.214000000    -5.970000000    -4.872000000
C     1.727000000    -4.492000000    -6.447000000
H     1.329000000    -5.121000000    -7.239000000
C     2.345000000    -3.263000000    -6.727000000
H     2.458000000    -2.960000000    -7.764000000
C     3.000000000    -2.570000000    -5.749000000
O     3.680000000    -1.444000000    -6.049000000
C     3.411000000    -0.225000000    -5.393000000
C     4.450000000     0.636000000    -5.209000000
H     5.431000000     0.394000000    -5.610000000
C     4.311000000     1.947000000    -4.627000000
O     5.324000000     2.849000000    -4.528000000
C     5.525000000     3.623000000    -3.429000000
C     5.871000000     4.984000000    -3.613000000
H     5.867000000     5.374000000    -4.628000000
C     6.061000000     5.801000000    -2.467000000
H     6.308000000     6.859000000    -2.443000000
C     5.758000000     5.264000000    -1.245000000
H     5.827000000     5.992000000    -0.441000000
C     5.327000000     3.927000000    -1.085000000
C     5.260000000     3.110000000    -2.151000000
H     5.087000000     2.040000000    -2.068000000
C     0.970000000    -1.418000000     1.310000000
H     0.948000000    -2.334000000     1.894000000
C    -0.270000000    -0.948000000     0.796000000
H    -1.170000000    -1.527000000     0.988000000
C    -0.241000000     0.173000000    -0.066000000
H    -1.142000000     0.419000000    -0.652000000
C     0.942000000     0.859000000    -0.256000000
H     1.011000000     1.747000000    -0.880000000
C     2.082000000     0.438000000     0.388000000
H     2.941000000     1.093000000     0.271000000
C     2.210000000    -0.788000000     1.090000000
C     3.538000000    -1.300000000     1.657000000
O     4.574000000    -0.933000000     1.225000000
O     3.587000000    -2.062000000     2.597000000
O     6.353000000     0.234000000     2.690000000
H     7.059000000     0.413000000     2.069000000
H     5.627000000    -0.072000000     2.146000000
O     6.842000000     1.576000000     5.126000000
H     6.243000000     1.064000000     4.583000000
H     7.029000000     2.357000000     4.607000000
O     7.074000000     0.389000000    -3.323000000
H     6.905000000     0.047000000    -2.445000000
H     6.321000000     0.105000000    -3.840000000
O     6.825000000    -2.661000000     2.123000000
H     6.219000000    -1.936000000     1.971000000
H     6.474000000    -3.381000000     1.598000000
O     5.854000000    -0.625000000    -0.953000000
H     5.137000000    -0.461000000    -0.341000000
H     5.747000000    -1.541000000    -1.208000000
O     6.286000000    -6.115000000     2.756000000
H     6.293000000    -5.590000000     3.556000000
H     5.405000000    -6.489000000     2.722000000
O     3.580000000    -6.674000000     2.997000000
H     2.968000000    -5.965000000     3.193000000
H     3.149000000    -7.178000000     2.307000000
O     4.640000000    -4.260000000     0.897000000
H     4.670000000    -5.137000000     1.280000000
H     4.530000000    -3.675000000     1.645000000
O     8.490000000    -3.990000000    -0.718000000
H     7.594000000    -3.910000000    -1.045000000
H     8.456000000    -4.724000000    -0.105000000
O     8.562000000    -5.866000000     1.139000000
H     7.742000000    -5.806000000     1.630000000
H     9.108000000    -6.457000000     1.657000000
O     4.764000000    -1.844000000     7.495000000
H     3.981000000    -2.356000000     7.291000000
H     5.242000000    -1.799000000     6.667000000
O     5.947000000    -4.815000000     5.016000000
H     6.649000000    -5.114000000     5.593000000
H     6.231000000    -3.949000000     4.722000000
O     5.808000000    -3.938000000    -1.563000000
H     5.599000000    -4.716000000    -2.079000000
H     5.287000000    -4.031000000    -0.766000000
O     6.187000000    -2.283000000    -3.541000000
H     6.728000000    -2.620000000    -4.255000000
H     6.271000000    -2.938000000    -2.847000000
O     7.775000000     1.049000000     0.483000000
H     7.748000000     1.889000000     0.026000000
H     7.449000000     0.417000000    -0.157000000
O     3.462000000    -5.057000000     6.281000000
H     3.700000000    -5.008000000     7.207000000
H     4.298000000    -5.034000000     5.817000000
O     2.594000000    -4.263000000     3.661000000
H     2.861000000    -3.446000000     3.238000000
H     2.616000000    -4.065000000     4.598000000
O     5.189000000    -1.653000000     4.581000000
H     5.685000000    -0.894000000     4.276000000
H     4.408000000    -1.667000000     4.028000000
O     9.496000000    -2.286000000     2.257000000
H     8.543000000    -2.367000000     2.304000000
H     9.668000000    -1.994000000     1.362000000
