215
-1439.68647
C     2.080000000     2.575000000    -3.751000000
H     1.582000000     1.639000000    -3.992000000
C     3.086000000     2.520000000    -2.817000000
C     3.503000000     3.748000000    -2.287000000
H     4.290000000     3.871000000    -1.548000000
C     3.555000000     1.207000000    -2.253000000
O     3.705000000     0.230000000    -3.277000000
H     2.745000000     0.977000000    -1.546000000
O     4.795000000     1.426000000    -1.488000000
C     4.809000000     0.738000000    -0.312000000
C     4.453000000     1.522000000     0.785000000
H     4.285000000     2.594000000     0.717000000
C     4.173000000     0.861000000     2.008000000
O     3.569000000     1.635000000     3.019000000
C     4.306000000    -0.535000000     2.199000000
C     3.996000000    -1.238000000     3.495000000
H     4.787000000    -1.977000000     3.643000000
C     2.599000000    -1.817000000     3.602000000
C     2.243000000    -3.081000000     3.201000000
H     2.984000000    -3.722000000     2.732000000
H     4.157000000    -0.482000000     4.266000000
C     4.636000000    -1.234000000     1.020000000
H     4.725000000    -2.317000000     1.007000000
C     4.805000000    -0.617000000    -0.221000000
C     5.132000000    -1.523000000    -1.429000000
H     5.765000000    -2.357000000    -1.119000000
H     5.743000000    -0.928000000    -2.111000000
C     3.863000000    -1.917000000    -2.233000000
C     3.213000000    -3.135000000    -1.957000000
H     3.465000000    -3.807000000    -1.141000000
C     3.226000000    -1.056000000    -3.136000000
C     2.100000000    -1.392000000    -3.844000000
H     1.673000000    -0.781000000    -4.635000000
C     1.534000000    -2.659000000    -3.607000000
O     0.248000000    -2.896000000    -4.079000000
C    -0.850000000    -2.815000000    -3.179000000
C    -2.070000000    -2.099000000    -3.815000000
C    -3.336000000    -2.382000000    -3.394000000
H    -3.505000000    -3.324000000    -2.878000000
C    -1.844000000    -0.922000000    -4.489000000
H    -0.832000000    -0.613000000    -4.737000000
O    -1.246000000    -4.048000000    -2.628000000
H    -0.431000000    -2.168000000    -2.394000000
C     2.118000000    -3.498000000    -2.689000000
C     1.427000000    -4.824000000    -2.296000000
H     2.171000000    -5.575000000    -2.020000000
H     0.974000000    -5.292000000    -3.173000000
C     0.463000000    -4.768000000    -1.126000000
C     0.909000000    -4.947000000     0.183000000
H     1.954000000    -5.159000000     0.394000000
C    -0.827000000    -4.420000000    -1.365000000
C    -1.736000000    -4.327000000    -0.312000000
H    -2.784000000    -4.078000000    -0.453000000
C    -1.320000000    -4.474000000     1.029000000
O    -2.258000000    -4.157000000     2.059000000
C    -2.148000000    -2.744000000     2.600000000
C    -3.463000000    -2.121000000     2.824000000
C    -4.409000000    -2.334000000     1.836000000
H    -4.193000000    -2.981000000     0.990000000
C    -3.758000000    -1.284000000     3.904000000
H    -2.981000000    -1.059000000     4.630000000
O    -1.397000000    -2.863000000     3.772000000
H    -1.518000000    -2.171000000     1.903000000
C     0.026000000    -4.768000000     1.284000000
C     0.577000000    -4.848000000     2.707000000
H     1.392000000    -5.569000000     2.808000000
H    -0.152000000    -5.249000000     3.414000000
C     0.930000000    -3.430000000     3.330000000
C    -0.037000000    -2.520000000     3.837000000
C     0.285000000    -1.278000000     4.276000000
H    -0.373000000    -0.542000000     4.731000000
C     1.620000000    -0.948000000     4.107000000
O     1.853000000     0.363000000     4.355000000
C     2.089000000     1.393000000     3.303000000
H     1.546000000     1.061000000     2.406000000
C     1.390000000     2.708000000     3.455000000
C     1.767000000     3.835000000     2.700000000
H     2.657000000     3.824000000     2.077000000
C     0.250000000     2.754000000     4.303000000
H    -0.256000000     1.870000000     4.683000000
C    -0.448000000     3.993000000     4.424000000
O    -1.531000000     4.078000000     5.277000000
C     0.032000000     5.100000000     3.751000000
H    -0.428000000     6.057000000     3.985000000
C     1.060000000     5.014000000     2.843000000
O     1.371000000     6.231000000     2.229000000
C     2.433000000     6.477000000     1.379000000
C     2.392000000     6.165000000    -0.006000000
H     1.459000000     5.785000000    -0.413000000
C     3.580000000     7.007000000     1.932000000
H     3.607000000     7.298000000     2.979000000
C     4.680000000     7.240000000     1.136000000
H     5.585000000     7.746000000     1.463000000
C     4.670000000     6.895000000    -0.237000000
H     5.546000000     7.065000000    -0.858000000
C     3.459000000     6.451000000    -0.804000000
O     3.421000000     6.145000000    -2.192000000
C     2.968000000     4.937000000    -2.714000000
C     2.119000000     4.989000000    -3.828000000
H     1.787000000     5.905000000    -4.308000000
C     1.656000000     3.778000000    -4.333000000
O     0.703000000     3.870000000    -5.384000000
C     0.267000000     2.794000000    -5.978000000
C    -0.977000000     2.316000000    -5.563000000
H    -1.497000000     2.778000000    -4.728000000
C     0.933000000     2.109000000    -6.992000000
H     1.936000000     2.441000000    -7.250000000
C     0.458000000     0.967000000    -7.605000000
H     1.054000000     0.350000000    -8.272000000
C    -0.857000000     0.567000000    -7.218000000
H    -1.273000000    -0.312000000    -7.704000000
C    -1.541000000     1.269000000    -6.254000000
O    -2.762000000     0.823000000    -5.933000000
C    -2.963000000    -0.170000000    -4.995000000
C    -4.270000000    -0.631000000    -4.753000000
H    -5.143000000    -0.113000000    -5.141000000
C    -4.473000000    -1.724000000    -3.951000000
O    -5.808000000    -2.119000000    -3.699000000
C    -6.161000000    -2.756000000    -2.569000000
C    -6.436000000    -2.020000000    -1.415000000
H    -6.406000000    -0.934000000    -1.458000000
C    -6.123000000    -4.180000000    -2.559000000
H    -5.901000000    -4.778000000    -3.440000000
C    -6.366000000    -4.836000000    -1.350000000
H    -6.269000000    -5.906000000    -1.185000000
C    -6.562000000    -4.034000000    -0.163000000
H    -6.820000000    -4.501000000     0.784000000
C    -6.673000000    -2.650000000    -0.161000000
O    -6.624000000    -1.892000000     0.987000000
C    -5.589000000    -1.689000000     1.966000000
C    -5.798000000    -0.625000000     2.848000000
H    -6.692000000    -0.011000000     2.921000000
C    -4.821000000    -0.413000000     3.816000000
O    -5.005000000     0.681000000     4.672000000
C    -3.994000000     1.325000000     5.394000000
C    -3.700000000     0.729000000     6.592000000
H    -4.157000000    -0.206000000     6.907000000
C    -2.747000000     1.397000000     7.415000000
H    -2.551000000     0.935000000     8.379000000
C    -1.994000000     2.510000000     7.046000000
H    -1.193000000     2.804000000     7.720000000
C    -2.256000000     3.014000000     5.721000000
C    -3.336000000     2.512000000     5.006000000
H    -3.502000000     2.739000000     3.956000000
C    -2.017000000     1.030000000    -1.147000000
H    -2.828000000     1.168000000    -1.858000000
C    -1.679000000    -0.230000000    -0.601000000
H    -2.420000000    -1.007000000    -0.766000000
C    -0.471000000    -0.323000000     0.126000000
H    -0.177000000    -1.169000000     0.739000000
C     0.475000000     0.662000000     0.025000000
H     1.462000000     0.482000000     0.443000000
C     0.087000000     1.883000000    -0.492000000
H     0.873000000     2.634000000    -0.526000000
C    -1.190000000     2.150000000    -0.877000000
C    -1.608000000     3.528000000    -1.211000000
O    -0.811000000     4.401000000    -0.894000000
O    -2.797000000     3.751000000    -1.575000000
O    -0.628000000     9.532000000    -2.397000000
H    -0.744000000     9.576000000    -3.346000000
H    -0.713000000     8.601000000    -2.188000000
O    -7.136000000     5.881000000    -3.127000000
H    -7.174000000     4.989000000    -2.782000000
H    -6.929000000     6.424000000    -2.367000000
O    -4.821000000     5.098000000     2.817000000
H    -4.159000000     4.983000000     2.136000000
H    -5.646000000     5.178000000     2.338000000
O    -0.877000000     5.914000000    -6.152000000
H    -1.332000000     5.593000000    -6.931000000
H    -0.058000000     5.419000000    -6.132000000
O    -2.629000000     4.732000000     1.375000000
H    -1.901000000     4.405000000     1.903000000
H    -2.284000000     4.759000000     0.482000000
O    -1.342000000     7.030000000    -1.762000000
H    -0.950000000     6.157000000    -1.749000000
H    -2.285000000     6.869000000    -1.804000000
O    -5.929000000     2.314000000    -4.455000000
H    -6.877000000     2.188000000    -4.411000000
H    -5.637000000     2.258000000    -3.546000000
O    -2.852000000     7.172000000     3.181000000
H    -2.302000000     7.424000000     2.439000000
H    -3.471000000     6.540000000     2.817000000
O    -3.975000000     8.834000000     0.145000000
H    -4.548000000     8.595000000     0.874000000
H    -4.403000000     8.466000000    -0.627000000
O    -4.542000000     2.355000000     1.219000000
H    -4.212000000     3.146000000     0.792000000
H    -3.762000000     1.937000000     1.584000000
O    -7.049000000     3.515000000     1.716000000
H    -7.235000000     2.733000000     1.197000000
H    -6.309000000     3.265000000     2.270000000
O    -5.428000000     4.721000000    -5.638000000
H    -4.685000000     5.073000000    -5.148000000
H    -5.540000000     3.833000000    -5.296000000
O    -3.941000000     6.057000000    -1.768000000
H    -3.395000000     5.270000000    -1.779000000
H    -4.794000000     5.752000000    -1.458000000
O    -6.105000000     5.275000000    -0.176000000
H    -6.683000000     4.758000000     0.385000000
H    -6.598000000     6.075000000    -0.356000000
O    -7.295000000     1.205000000     0.510000000
H    -8.080000000     0.657000000     0.504000000
H    -6.607000000     0.635000000     0.855000000
O    -1.545000000     7.940000000     0.844000000
H    -1.247000000     7.201000000     0.314000000
H    -2.314000000     8.273000000     0.380000000
O     0.611000000     9.364000000     1.168000000
H    -0.146000000     8.845000000     0.896000000
H     0.852000000     9.007000000     2.023000000
O    -5.158000000     2.450000000    -1.801000000
H    -4.494000000     3.132000000    -1.698000000
H    -5.254000000     2.076000000    -0.925000000
O    -3.342000000     6.059000000    -4.402000000
H    -2.399000000     5.980000000    -4.543000000
H    -3.422000000     6.519000000    -3.567000000
