215
-1451.71523
C    -2.212000000    -3.010000000     4.091000000
H    -3.236000000    -3.310000000     3.883000000
C    -1.725000000    -1.727000000     3.842000000
C    -0.399000000    -1.402000000     4.194000000
H    -0.083000000    -0.367000000     4.096000000
C    -2.620000000    -0.753000000     3.152000000
O    -3.945000000    -1.181000000     2.994000000
H    -2.143000000    -0.592000000     2.174000000
O    -2.631000000     0.490000000     3.860000000
C    -2.653000000     1.698000000     3.176000000
C    -1.464000000     2.363000000     3.089000000
H    -0.582000000     1.955000000     3.576000000
C    -1.268000000     3.455000000     2.280000000
O     0.026000000     3.886000000     2.389000000
C    -2.366000000     4.040000000     1.612000000
C    -2.197000000     5.195000000     0.661000000
H    -3.153000000     5.625000000     0.357000000
C    -1.402000000     4.744000000    -0.545000000
C    -2.120000000     4.364000000    -1.685000000
H    -3.196000000     4.254000000    -1.575000000
H    -1.724000000     5.978000000     1.257000000
C    -3.547000000     3.311000000     1.561000000
H    -4.373000000     3.636000000     0.933000000
C    -3.705000000     2.166000000     2.353000000
C    -5.035000000     1.402000000     2.287000000
H    -5.837000000     2.073000000     1.973000000
H    -5.337000000     1.074000000     3.284000000
C    -4.988000000     0.210000000     1.309000000
C    -5.204000000     0.410000000    -0.087000000
H    -5.626000000     1.322000000    -0.502000000
C    -4.551000000    -1.026000000     1.793000000
C    -4.425000000    -2.089000000     0.952000000
H    -4.000000000    -2.973000000     1.420000000
C    -4.571000000    -1.917000000    -0.409000000
O    -4.085000000    -2.973000000    -1.102000000
C    -2.720000000    -2.681000000    -1.566000000
C    -1.752000000    -3.819000000    -1.256000000
C    -0.510000000    -3.785000000    -1.881000000
H    -0.392000000    -3.136000000    -2.745000000
C    -2.113000000    -4.869000000    -0.377000000
H    -3.137000000    -4.863000000    -0.012000000
O    -2.760000000    -2.305000000    -3.016000000
H    -2.339000000    -1.764000000    -1.094000000
C    -4.958000000    -0.678000000    -0.951000000
C    -5.125000000    -0.548000000    -2.440000000
H    -5.929000000     0.185000000    -2.528000000
H    -5.446000000    -1.498000000    -2.873000000
C    -3.802000000    -0.090000000    -3.069000000
C    -3.639000000     1.270000000    -3.323000000
H    -4.380000000     2.021000000    -3.060000000
C    -2.750000000    -0.968000000    -3.383000000
C    -1.562000000    -0.513000000    -3.940000000
H    -0.840000000    -1.248000000    -4.287000000
C    -1.388000000     0.858000000    -4.226000000
O    -0.187000000     1.281000000    -4.794000000
C     0.826000000     1.914000000    -3.952000000
C     2.240000000     1.434000000    -4.245000000
C     2.452000000     0.075000000    -4.634000000
H     1.618000000    -0.615000000    -4.730000000
C     3.331000000     2.283000000    -3.890000000
H     3.105000000     3.264000000    -3.479000000
O     0.702000000     3.366000000    -3.865000000
H     0.528000000     1.560000000    -2.954000000
C    -2.410000000     1.762000000    -3.898000000
C    -2.196000000     3.310000000    -4.062000000
H    -3.199000000     3.741000000    -4.050000000
H    -1.824000000     3.681000000    -5.019000000
C    -1.441000000     3.936000000    -2.839000000
C    -0.003000000     4.005000000    -2.880000000
C     0.685000000     4.369000000    -1.762000000
H     1.768000000     4.302000000    -1.712000000
C     0.003000000     4.696000000    -0.592000000
O     0.811000000     4.976000000     0.459000000
C     0.948000000     3.778000000     1.263000000
H     0.682000000     2.893000000     0.666000000
C     2.388000000     3.674000000     1.784000000
C     2.697000000     2.765000000     2.764000000
H     1.904000000     2.187000000     3.232000000
C     3.454000000     4.191000000     1.068000000
H     3.277000000     4.843000000     0.216000000
C     4.795000000     3.883000000     1.401000000
O     5.853000000     4.417000000     0.618000000
C     5.029000000     3.116000000     2.514000000
H     6.059000000     3.010000000     2.846000000
C     3.996000000     2.567000000     3.183000000
O     4.304000000     1.572000000     4.132000000
C     3.376000000     1.105000000     5.013000000
C     2.977000000    -0.201000000     4.861000000
H     3.390000000    -0.924000000     4.162000000
C     2.706000000     2.006000000     5.895000000
H     3.066000000     3.030000000     5.835000000
C     1.579000000     1.463000000     6.550000000
H     1.226000000     2.172000000     7.295000000
C     1.243000000     0.116000000     6.435000000
H     0.389000000    -0.330000000     6.939000000
C     1.974000000    -0.725000000     5.643000000
O     1.624000000    -2.013000000     5.348000000
C     0.393000000    -2.355000000     4.860000000
C    -0.101000000    -3.592000000     5.074000000
H     0.511000000    -4.333000000     5.582000000
C    -1.332000000    -3.928000000     4.674000000
O    -1.789000000    -5.153000000     5.001000000
C    -2.079000000    -6.124000000     4.068000000
C    -1.738000000    -6.007000000     2.735000000
H    -1.396000000    -5.019000000     2.438000000
C    -2.525000000    -7.359000000     4.603000000
H    -2.556000000    -7.545000000     5.673000000
C    -2.507000000    -8.443000000     3.706000000
H    -2.672000000    -9.396000000     4.202000000
C    -2.234000000    -8.322000000     2.370000000
H    -2.188000000    -9.168000000     1.688000000
C    -1.833000000    -7.077000000     1.872000000
O    -1.475000000    -6.980000000     0.554000000
C    -1.161000000    -5.832000000    -0.050000000
C     0.149000000    -5.729000000    -0.625000000
H     0.953000000    -6.435000000    -0.435000000
C     0.441000000    -4.718000000    -1.529000000
O     1.748000000    -4.707000000    -2.138000000
C     1.915000000    -4.118000000    -3.365000000
C     2.831000000    -3.105000000    -3.525000000
H     3.260000000    -2.546000000    -2.697000000
C     1.386000000    -4.743000000    -4.455000000
H     0.682000000    -5.531000000    -4.202000000
C     1.706000000    -4.415000000    -5.786000000
H     1.286000000    -4.978000000    -6.615000000
C     2.648000000    -3.340000000    -5.959000000
H     2.969000000    -3.045000000    -6.955000000
C     3.185000000    -2.709000000    -4.819000000
O     4.072000000    -1.711000000    -4.937000000
C     3.781000000    -0.345000000    -4.851000000
C     4.808000000     0.493000000    -4.622000000
H     5.853000000     0.241000000    -4.783000000
C     4.628000000     1.807000000    -4.088000000
O     5.748000000     2.565000000    -3.799000000
C     5.692000000     3.665000000    -2.969000000
C     5.676000000     4.947000000    -3.530000000
H     5.542000000     5.110000000    -4.596000000
C     6.012000000     6.052000000    -2.676000000
H     6.173000000     7.026000000    -3.130000000
C     6.033000000     5.883000000    -1.258000000
H     6.231000000     6.731000000    -0.607000000
C     5.837000000     4.563000000    -0.761000000
C     5.780000000     3.439000000    -1.594000000
H     5.797000000     2.435000000    -1.179000000
C     1.117000000    -2.469000000     1.240000000
H     1.183000000    -3.517000000     1.520000000
C    -0.137000000    -1.835000000     0.832000000
H    -1.054000000    -2.411000000     0.929000000
C    -0.165000000    -0.538000000     0.382000000
H    -1.106000000    -0.148000000    -0.103000000
C     0.990000000     0.187000000     0.219000000
H     1.017000000     1.191000000    -0.196000000
C     2.217000000    -0.410000000     0.587000000
H     3.080000000     0.201000000     0.337000000
C     2.322000000    -1.677000000     1.155000000
C     3.766000000    -2.203000000     1.431000000
O     4.743000000    -1.545000000     1.161000000
O     3.873000000    -3.283000000     1.964000000
O     6.481000000    -0.248000000     2.540000000
H     7.373000000    -0.335000000     2.204000000
H     5.946000000    -0.760000000     1.933000000
O     7.354000000     0.993000000     4.793000000
H     6.913000000     1.842000000     4.830000000
H     6.784000000     0.450000000     4.249000000
O     8.888000000    -4.021000000    -2.949000000
H     8.116000000    -3.636000000    -2.535000000
H     8.535000000    -4.683000000    -3.544000000
O     7.094000000    -3.126000000     1.502000000
H     7.584000000    -2.305000000     1.452000000
H     6.182000000    -2.854000000     1.603000000
O     6.025000000    -0.515000000    -1.001000000
H     5.581000000    -0.964000000    -0.281000000
H     5.583000000    -0.830000000    -1.789000000
O     5.866000000    -8.164000000     1.354000000
H     5.874000000    -8.830000000     2.041000000
H     4.938000000    -8.008000000     1.182000000
O     2.997000000    -8.004000000     0.613000000
H     2.776000000    -7.178000000     1.043000000
H     2.635000000    -8.678000000     1.188000000
O     4.237000000    -5.016000000    -0.376000000
H     4.169000000    -4.501000000     0.428000000
H     3.427000000    -4.830000000    -0.849000000
O     7.382000000    -6.153000000     2.800000000
H     6.967000000    -5.731000000     3.552000000
H     6.673000000    -6.637000000     2.376000000
O     9.052000000    -5.266000000     0.583000000
H     8.914000000    -4.325000000     0.474000000
H     8.570000000    -5.488000000     1.379000000
O     5.117000000    -3.705000000     6.801000000
H     4.248000000    -4.105000000     6.836000000
H     5.220000000    -3.436000000     5.888000000
O     7.540000000    -4.632000000     5.096000000
H     6.787000000    -4.110000000     4.818000000
H     8.154000000    -3.992000000     5.457000000
O     4.616000000    -7.128000000    -2.108000000
H     4.300000000    -7.920000000    -1.674000000
H     4.452000000    -6.427000000    -1.476000000
O     6.644000000    -3.559000000    -1.296000000
H     6.037000000    -4.296000000    -1.355000000
H     6.916000000    -3.545000000    -0.379000000
O     8.504000000    -0.105000000    -1.025000000
H     7.560000000    -0.255000000    -1.072000000
H     8.765000000    -0.481000000    -0.184000000
O     9.068000000    -1.276000000     1.559000000
H     9.695000000    -1.965000000     1.776000000
H     9.574000000    -0.465000000     1.615000000
O     2.398000000    -6.361000000     5.579000000
H     1.803000000    -7.028000000     5.921000000
H     2.325000000    -5.634000000     6.197000000
O     2.896000000    -5.938000000     2.353000000
H     3.034000000    -4.991000000     2.322000000
H     2.784000000    -6.133000000     3.284000000
O     5.444000000    -2.841000000     4.134000000
H     5.741000000    -1.969000000     3.871000000
H     4.944000000    -3.160000000     3.382000000
