215
-1435.68591
C    -1.612000000    -2.765000000     4.405000000
H    -2.533000000    -3.246000000     4.089000000
C    -1.462000000    -1.400000000     4.191000000
C    -0.250000000    -0.815000000     4.662000000
H    -0.027000000     0.238000000     4.509000000
C    -2.515000000    -0.555000000     3.480000000
O    -3.724000000    -1.288000000     3.222000000
H    -2.085000000    -0.299000000     2.501000000
O    -2.789000000     0.644000000     4.161000000
C    -2.784000000     1.803000000     3.390000000
C    -1.657000000     2.630000000     3.347000000
H    -0.894000000     2.479000000     4.107000000
C    -1.575000000     3.597000000     2.333000000
O    -0.369000000     4.243000000     2.311000000
C    -2.615000000     3.850000000     1.448000000
C    -2.467000000     4.900000000     0.351000000
H    -3.461000000     5.125000000    -0.041000000
C    -1.592000000     4.517000000    -0.849000000
C    -2.357000000     4.049000000    -1.890000000
H    -3.440000000     3.982000000    -1.835000000
H    -2.020000000     5.772000000     0.833000000
C    -3.776000000     3.120000000     1.568000000
H    -4.566000000     3.279000000     0.839000000
C    -3.858000000     2.049000000     2.490000000
C    -5.070000000     1.105000000     2.415000000
H    -6.029000000     1.610000000     2.283000000
H    -5.217000000     0.722000000     3.427000000
C    -4.811000000    -0.062000000     1.456000000
C    -5.205000000     0.048000000     0.107000000
H    -5.627000000     0.958000000    -0.313000000
C    -4.264000000    -1.277000000     2.018000000
C    -3.994000000    -2.327000000     1.137000000
H    -3.507000000    -3.245000000     1.456000000
C    -4.271000000    -2.176000000    -0.205000000
O    -3.762000000    -3.051000000    -1.082000000
C    -2.525000000    -2.792000000    -1.738000000
C    -1.458000000    -3.824000000    -1.546000000
C    -0.279000000    -3.788000000    -2.234000000
H     0.046000000    -2.879000000    -2.734000000
C    -1.600000000    -4.798000000    -0.572000000
H    -2.433000000    -4.766000000     0.126000000
O    -2.892000000    -2.519000000    -3.083000000
H    -2.129000000    -1.829000000    -1.384000000
C    -4.776000000    -0.975000000    -0.725000000
C    -5.093000000    -0.851000000    -2.153000000
H    -5.888000000    -0.152000000    -2.420000000
H    -5.413000000    -1.836000000    -2.498000000
C    -3.926000000    -0.377000000    -3.053000000
C    -3.818000000     0.989000000    -3.238000000
H    -4.533000000     1.710000000    -2.850000000
C    -2.842000000    -1.165000000    -3.396000000
C    -1.741000000    -0.707000000    -4.082000000
H    -0.909000000    -1.340000000    -4.378000000
C    -1.640000000     0.602000000    -4.264000000
O    -0.550000000     1.070000000    -4.944000000
C     0.440000000     1.704000000    -4.216000000
C     1.830000000     1.298000000    -4.579000000
C     1.969000000     0.127000000    -5.245000000
H     1.126000000    -0.541000000    -5.403000000
C     2.944000000     2.071000000    -4.250000000
H     2.802000000     3.037000000    -3.772000000
O     0.318000000     3.177000000    -4.186000000
H     0.174000000     1.425000000    -3.186000000
C    -2.673000000     1.481000000    -3.857000000
C    -2.574000000     2.986000000    -4.137000000
H    -3.608000000     3.336000000    -4.153000000
H    -2.124000000     3.095000000    -5.127000000
C    -1.702000000     3.650000000    -3.052000000
C    -0.338000000     3.775000000    -3.120000000
C     0.394000000     4.336000000    -2.077000000
H     1.477000000     4.245000000    -2.045000000
C    -0.236000000     4.668000000    -0.905000000
O     0.584000000     4.916000000     0.228000000
C     0.569000000     3.922000000     1.253000000
H     0.315000000     2.964000000     0.776000000
C     1.998000000     3.676000000     1.792000000
C     2.300000000     3.673000000     3.128000000
H     1.602000000     3.970000000     3.907000000
C     3.092000000     3.554000000     0.911000000
H     2.993000000     3.544000000    -0.172000000
C     4.338000000     3.137000000     1.339000000
O     5.403000000     2.880000000     0.494000000
C     4.594000000     3.095000000     2.716000000
H     5.603000000     2.791000000     2.982000000
C     3.582000000     3.441000000     3.593000000
O     3.859000000     3.328000000     4.964000000
C     3.324000000     2.319000000     5.753000000
C     2.931000000     1.144000000     5.138000000
H     3.257000000     0.868000000     4.138000000
C     2.977000000     2.696000000     7.047000000
H     3.395000000     3.625000000     7.427000000
C     2.192000000     1.805000000     7.710000000
H     1.896000000     2.195000000     8.680000000
C     1.802000000     0.554000000     7.118000000
H     1.115000000    -0.055000000     7.701000000
C     2.285000000     0.211000000     5.880000000
O     2.094000000    -1.036000000     5.292000000
C     0.824000000    -1.535000000     5.143000000
C     0.618000000    -2.932000000     5.290000000
H     1.521000000    -3.523000000     5.418000000
C    -0.534000000    -3.525000000     4.861000000
O    -0.829000000    -4.833000000     5.140000000
C    -1.289000000    -5.772000000     4.153000000
C    -0.858000000    -5.669000000     2.796000000
H    -0.096000000    -4.944000000     2.521000000
C    -2.195000000    -6.736000000     4.532000000
H    -2.533000000    -6.738000000     5.565000000
C    -2.690000000    -7.593000000     3.571000000
H    -3.244000000    -8.463000000     3.913000000
C    -2.246000000    -7.533000000     2.223000000
H    -2.547000000    -8.282000000     1.494000000
C    -1.326000000    -6.534000000     1.852000000
O    -0.689000000    -6.676000000     0.658000000
C    -0.600000000    -5.678000000    -0.284000000
C     0.615000000    -5.553000000    -0.932000000
H     1.403000000    -6.210000000    -0.573000000
C     0.820000000    -4.574000000    -1.879000000
O     2.075000000    -4.397000000    -2.458000000
C     2.254000000    -4.291000000    -3.828000000
C     2.682000000    -3.006000000    -4.297000000
H     2.839000000    -2.204000000    -3.580000000
C     1.959000000    -5.340000000    -4.746000000
H     1.651000000    -6.287000000    -4.309000000
C     2.253000000    -5.076000000    -6.119000000
H     2.169000000    -5.840000000    -6.889000000
C     2.785000000    -3.867000000    -6.519000000
H     3.117000000    -3.808000000    -7.552000000
C     3.030000000    -2.781000000    -5.640000000
O     3.422000000    -1.568000000    -6.131000000
C     3.243000000    -0.421000000    -5.453000000
C     4.354000000     0.326000000    -5.147000000
H     5.374000000     0.015000000    -5.357000000
C     4.168000000     1.562000000    -4.587000000
O     5.262000000     2.352000000    -4.274000000
C     5.422000000     3.229000000    -3.175000000
C     5.499000000     4.606000000    -3.273000000
H     5.552000000     4.982000000    -4.291000000
C     5.651000000     5.403000000    -2.104000000
H     5.709000000     6.476000000    -2.267000000
C     5.602000000     4.869000000    -0.828000000
H     5.693000000     5.435000000     0.096000000
C     5.435000000     3.477000000    -0.766000000
C     5.437000000     2.693000000    -1.907000000
H     5.468000000     1.634000000    -1.667000000
C     1.180000000    -1.542000000     1.026000000
H     1.073000000    -2.439000000     1.631000000
C     0.003000000    -0.899000000     0.535000000
H    -0.935000000    -1.396000000     0.769000000
C     0.191000000     0.193000000    -0.262000000
H    -0.660000000     0.667000000    -0.610000000
C     1.480000000     0.704000000    -0.543000000
H     1.603000000     1.673000000    -1.021000000
C     2.563000000     0.100000000     0.019000000
H     3.538000000     0.537000000    -0.185000000
C     2.455000000    -1.090000000     0.727000000
C     3.650000000    -1.829000000     1.305000000
O     4.764000000    -1.418000000     1.047000000
O     3.547000000    -2.789000000     2.019000000
O     7.782000000    -1.260000000     2.215000000
H     7.254000000    -2.053000000     2.301000000
H     7.844000000    -1.115000000     1.271000000
O     8.524000000    -0.896000000     4.844000000
H     7.995000000    -1.100000000     4.073000000
H     8.473000000     0.057000000     4.925000000
O     5.973000000    -6.876000000     5.265000000
H     5.038000000    -7.048000000     5.376000000
H     6.012000000    -5.997000000     4.890000000
O     6.868000000    -1.568000000    -4.185000000
H     6.770000000    -1.109000000    -3.351000000
H     6.949000000    -2.490000000    -3.942000000
O     6.278000000    -3.752000000     2.016000000
H     5.433000000    -3.332000000     1.856000000
H     6.304000000    -4.482000000     1.398000000
O     6.319000000    -1.264000000    -1.048000000
H     5.668000000    -1.242000000    -0.346000000
H     6.265000000    -2.153000000    -1.397000000
O     5.825000000    -7.085000000     1.320000000
H     5.775000000    -7.877000000     1.855000000
H     4.965000000    -7.022000000     0.905000000
O     2.958000000    -7.872000000     1.966000000
H     2.877000000    -7.068000000     2.479000000
H     2.584000000    -7.651000000     1.113000000
O     3.779000000    -4.816000000    -0.153000000
H     3.413000000    -4.315000000     0.576000000
H     3.140000000    -4.713000000    -0.859000000
O     8.542000000    -6.522000000     1.114000000
H     7.596000000    -6.545000000     1.261000000
H     8.901000000    -7.125000000     1.764000000
O     5.072000000    -2.016000000     6.517000000
H     4.256000000    -2.355000000     6.885000000
H     4.812000000    -1.616000000     5.688000000
O     6.769000000    -4.295000000     4.377000000
H     6.590000000    -4.222000000     3.440000000
H     6.735000000    -3.394000000     4.698000000
O     5.535000000    -6.090000000    -1.533000000
H     5.094000000    -6.939000000    -1.568000000
H     5.066000000    -5.605000000    -0.853000000
O     6.535000000    -3.985000000    -2.749000000
H     6.721000000    -4.438000000    -3.571000000
H     5.901000000    -4.547000000    -2.304000000
O     8.456000000     0.551000000    -1.059000000
H     7.677000000    -0.006000000    -1.053000000
H     8.857000000     0.393000000    -1.913000000
O    10.399000000    -2.018000000     2.263000000
H    10.533000000    -1.992000000     1.316000000
H     9.507000000    -1.695000000     2.388000000
O     3.786000000    -4.768000000     5.996000000
H     3.514000000    -5.435000000     6.628000000
H     4.458000000    -4.264000000     6.455000000
O     2.863000000    -5.084000000     3.454000000
H     3.025000000    -4.330000000     2.887000000
H     3.115000000    -4.785000000     4.328000000
O     5.063000000    -1.403000000     3.895000000
H     5.573000000    -0.773000000     3.385000000
H     4.669000000    -1.978000000     3.239000000
