215
-1444.02707
C    -1.506000000    -1.913000000     4.614000000
H    -2.116000000    -2.449000000     3.890000000
C    -1.529000000    -0.489000000     4.679000000
C    -0.751000000     0.172000000     5.616000000
H    -0.815000000     1.257000000     5.583000000
C    -2.439000000     0.214000000     3.628000000
O    -3.738000000    -0.311000000     3.366000000
H    -1.815000000     0.112000000     2.727000000
O    -2.604000000     1.617000000     3.851000000
C    -2.378000000     2.545000000     2.893000000
C    -1.177000000     3.243000000     2.886000000
H    -0.309000000     3.029000000     3.505000000
C    -0.902000000     4.185000000     1.855000000
O     0.325000000     4.689000000     1.718000000
C    -1.919000000     4.503000000     0.898000000
C    -1.748000000     5.458000000    -0.308000000
H    -2.709000000     5.734000000    -0.748000000
C    -1.081000000     4.678000000    -1.434000000
C    -1.832000000     4.050000000    -2.408000000
H    -2.913000000     4.131000000    -2.340000000
H    -1.141000000     6.333000000    -0.067000000
C    -3.129000000     3.840000000     1.056000000
H    -3.843000000     3.943000000     0.242000000
C    -3.385000000     2.890000000     2.021000000
C    -4.780000000     2.180000000     2.092000000
H    -5.473000000     2.840000000     1.567000000
H    -5.082000000     2.149000000     3.141000000
C    -4.620000000     0.789000000     1.446000000
C    -4.946000000     0.593000000     0.120000000
H    -5.351000000     1.481000000    -0.358000000
C    -4.201000000    -0.402000000     2.087000000
C    -3.992000000    -1.631000000     1.411000000
H    -3.484000000    -2.474000000     1.874000000
C    -4.294000000    -1.716000000     0.083000000
O    -3.963000000    -2.837000000    -0.602000000
C    -2.758000000    -2.807000000    -1.354000000
C    -1.787000000    -4.036000000    -1.153000000
C    -0.982000000    -4.571000000    -2.188000000
H    -1.096000000    -4.192000000    -3.200000000
C    -1.552000000    -4.610000000     0.114000000
H    -2.045000000    -4.231000000     1.006000000
O    -3.133000000    -2.686000000    -2.759000000
H    -2.230000000    -1.884000000    -1.076000000
C    -4.800000000    -0.551000000    -0.552000000
C    -5.127000000    -0.638000000    -2.015000000
H    -5.884000000     0.080000000    -2.338000000
H    -5.435000000    -1.635000000    -2.337000000
C    -3.884000000    -0.418000000    -2.916000000
C    -3.637000000     0.909000000    -3.284000000
H    -4.373000000     1.678000000    -3.066000000
C    -3.073000000    -1.460000000    -3.316000000
C    -1.913000000    -1.128000000    -4.030000000
H    -1.230000000    -1.936000000    -4.280000000
C    -1.595000000     0.193000000    -4.376000000
O    -0.404000000     0.416000000    -4.969000000
C     0.697000000     0.985000000    -4.229000000
C     2.019000000     0.285000000    -4.354000000
C     2.056000000    -1.035000000    -4.919000000
H     1.152000000    -1.448000000    -5.360000000
C     3.121000000     0.732000000    -3.670000000
H     3.161000000     1.733000000    -3.249000000
O     0.826000000     2.389000000    -4.384000000
H     0.457000000     0.822000000    -3.167000000
C    -2.471000000     1.206000000    -4.039000000
C    -2.050000000     2.650000000    -4.482000000
H    -2.985000000     3.200000000    -4.607000000
H    -1.630000000     2.639000000    -5.491000000
C    -1.181000000     3.336000000    -3.384000000
C     0.199000000     3.229000000    -3.434000000
C     0.981000000     3.776000000    -2.438000000
H     2.047000000     3.575000000    -2.504000000
C     0.362000000     4.489000000    -1.415000000
O     1.257000000     4.889000000    -0.467000000
C     1.162000000     4.080000000     0.770000000
H     0.742000000     3.078000000     0.599000000
C     2.512000000     3.681000000     1.299000000
C     2.566000000     3.108000000     2.569000000
H     1.643000000     2.962000000     3.124000000
C     3.713000000     3.905000000     0.568000000
H     3.758000000     4.279000000    -0.452000000
C     4.930000000     3.607000000     1.158000000
O     6.055000000     3.636000000     0.375000000
C     4.928000000     2.954000000     2.315000000
H     5.879000000     2.545000000     2.647000000
C     3.786000000     2.762000000     3.131000000
O     3.851000000     1.976000000     4.223000000
C     3.043000000     2.098000000     5.318000000
C     2.409000000     0.933000000     5.775000000
H     2.442000000    -0.031000000     5.274000000
C     2.832000000     3.312000000     5.939000000
H     3.422000000     4.169000000     5.625000000
C     1.949000000     3.437000000     7.061000000
H     1.821000000     4.404000000     7.539000000
C     1.398000000     2.300000000     7.550000000
H     0.756000000     2.327000000     8.426000000
C     1.600000000     1.075000000     6.916000000
O     0.887000000    -0.022000000     7.395000000
C     0.066000000    -0.586000000     6.492000000
C    -0.138000000    -1.959000000     6.534000000
H     0.262000000    -2.579000000     7.332000000
C    -0.930000000    -2.652000000     5.603000000
O    -1.110000000    -4.016000000     5.727000000
C    -1.509000000    -4.918000000     4.762000000
C    -0.721000000    -5.009000000     3.657000000
H     0.186000000    -4.411000000     3.688000000
C    -2.625000000    -5.729000000     4.925000000
H    -3.315000000    -5.648000000     5.761000000
C    -2.977000000    -6.617000000     3.860000000
H    -3.967000000    -7.064000000     3.822000000
C    -2.193000000    -6.687000000     2.754000000
H    -2.391000000    -7.384000000     1.945000000
C    -0.993000000    -5.946000000     2.663000000
O    -0.178000000    -6.111000000     1.564000000
C    -0.585000000    -5.619000000     0.283000000
C     0.047000000    -6.226000000    -0.785000000
H     0.758000000    -7.036000000    -0.642000000
C    -0.075000000    -5.632000000    -2.038000000
O     0.647000000    -6.123000000    -3.178000000
C     0.851000000    -5.349000000    -4.343000000
C     2.002000000    -4.645000000    -4.447000000
H     2.600000000    -4.424000000    -3.567000000
C     0.060000000    -5.550000000    -5.484000000
H    -0.872000000    -6.109000000    -5.488000000
C     0.417000000    -4.935000000    -6.667000000
H    -0.177000000    -5.111000000    -7.560000000
C     1.479000000    -4.039000000    -6.707000000
H     1.771000000    -3.446000000    -7.570000000
C     2.352000000    -3.967000000    -5.572000000
O     3.354000000    -3.029000000    -5.498000000
C     3.215000000    -1.837000000    -4.819000000
C     4.290000000    -1.337000000    -4.142000000
H     5.250000000    -1.839000000    -4.233000000
C     4.296000000    -0.078000000    -3.603000000
O     5.439000000     0.299000000    -2.988000000
C     5.634000000     1.592000000    -2.578000000
C     5.947000000     2.525000000    -3.556000000
H     5.913000000     2.166000000    -4.582000000
C     6.485000000     3.832000000    -3.203000000
H     6.968000000     4.430000000    -3.972000000
C     6.610000000     4.156000000    -1.906000000
H     7.022000000     5.115000000    -1.603000000
C     6.114000000     3.277000000    -0.910000000
C     5.779000000     1.981000000    -1.271000000
H     5.485000000     1.299000000    -0.477000000
C     1.287000000    -1.800000000     1.815000000
H     1.666000000    -2.214000000     2.746000000
C     0.476000000    -0.638000000     1.804000000
H     0.246000000    -0.028000000     2.673000000
C    -0.001000000    -0.161000000     0.652000000
H    -0.794000000     0.634000000     0.701000000
C     0.336000000    -0.743000000    -0.546000000
H    -0.003000000    -0.267000000    -1.462000000
C     1.034000000    -1.931000000    -0.587000000
H     1.211000000    -2.419000000    -1.542000000
C     1.544000000    -2.456000000     0.634000000
C     2.542000000    -3.582000000     0.683000000
O     2.874000000    -4.004000000    -0.395000000
O     3.052000000    -3.954000000     1.737000000
O     4.999000000    -5.817000000     0.062000000
H     5.617000000    -5.476000000     0.708000000
H     4.379000000    -5.101000000    -0.078000000
O     4.438000000    -2.614000000     3.491000000
H     4.015000000    -3.030000000     2.741000000
H     4.392000000    -3.270000000     4.187000000
O     4.669000000    -3.989000000    -2.291000000
H     3.864000000    -3.774000000    -1.820000000
H     5.371000000    -3.741000000    -1.690000000
O     6.745000000    -2.349000000     2.060000000
H     7.115000000    -1.603000000     2.533000000
H     5.873000000    -2.464000000     2.439000000
O     4.283000000    -4.883000000     4.820000000
H     4.634000000    -5.140000000     3.968000000
H     4.977000000    -5.101000000     5.442000000
O     3.887000000    -0.856000000    -0.736000000
H     3.749000000    -1.794000000    -0.608000000
H     3.012000000    -0.504000000    -0.897000000
O     6.512000000    -1.679000000    -1.305000000
H     6.474000000    -1.762000000    -0.352000000
H     5.862000000    -1.007000000    -1.513000000
O     6.728000000    -6.821000000    -1.802000000
H     6.282000000    -6.616000000    -2.623000000
H     6.194000000    -6.401000000    -1.128000000
O     3.850000000    -7.962000000    -1.494000000
H     3.008000000    -7.586000000    -1.235000000
H     4.497000000    -7.315000000    -1.214000000
O     1.784000000    -7.840000000     4.036000000
H     2.336000000    -7.427000000     3.372000000
H     2.200000000    -8.687000000     4.201000000
O     6.467000000    -5.742000000     2.493000000
H     7.079000000    -6.452000000     2.298000000
H     6.941000000    -5.179000000     3.106000000
O     8.790000000    -3.820000000     0.961000000
H     8.068000000    -3.383000000     1.413000000
H     8.951000000    -4.610000000     1.477000000
O     1.738000000    -9.152000000     0.222000000
H     2.383000000    -8.446000000     0.257000000
H     2.174000000    -9.852000000    -0.264000000
O     5.795000000    -0.196000000     3.630000000
H     5.342000000    -1.035000000     3.546000000
H     5.096000000     0.438000000     3.792000000
O     3.405000000    -6.481000000     2.340000000
H     4.103000000    -6.307000000     1.708000000
H     2.823000000    -5.724000000     2.268000000
O     5.232000000    -5.817000000    -4.102000000
H     4.906000000    -5.067000000    -3.605000000
H     6.032000000    -5.498000000    -4.520000000
O     1.923000000    -6.056000000     6.158000000
H     2.565000000    -5.378000000     5.948000000
H     1.838000000    -6.565000000     5.352000000
O     8.638000000    -3.548000000    -1.822000000
H     8.005000000    -2.845000000    -1.965000000
H     8.463000000    -3.850000000    -0.930000000
O     4.823000000    -8.671000000     3.695000000
H     4.684000000    -7.776000000     3.384000000
H     4.835000000    -9.202000000     2.898000000
