215
-1426.56952
C    -0.639000000    -1.600000000     4.807000000
H    -1.430000000    -2.205000000     4.370000000
C    -0.755000000    -0.219000000     4.764000000
C     0.139000000     0.554000000     5.548000000
H     0.116000000     1.637000000     5.459000000
C    -1.807000000     0.456000000     3.838000000
O    -3.071000000    -0.166000000     4.073000000
H    -1.524000000     0.353000000     2.780000000
O    -1.942000000     1.860000000     4.113000000
C    -2.066000000     2.819000000     3.148000000
C    -0.916000000     3.604000000     2.830000000
H     0.016000000     3.493000000     3.378000000
C    -0.895000000     4.280000000     1.598000000
O     0.368000000     4.846000000     1.262000000
C    -2.035000000     4.365000000     0.829000000
C    -2.015000000     5.182000000    -0.444000000
H    -3.050000000     5.451000000    -0.667000000
C    -1.459000000     4.458000000    -1.660000000
C    -2.430000000     3.769000000    -2.398000000
H    -3.471000000     3.662000000    -2.102000000
H    -1.357000000     6.044000000    -0.321000000
C    -3.200000000     3.661000000     1.232000000
H    -4.116000000     3.655000000     0.647000000
C    -3.172000000     2.900000000     2.362000000
C    -4.411000000     2.051000000     2.779000000
H    -5.352000000     2.536000000     2.513000000
H    -4.748000000     1.969000000     3.814000000
C    -4.393000000     0.689000000     2.170000000
C    -4.977000000     0.454000000     0.955000000
H    -5.584000000     1.219000000     0.478000000
C    -3.795000000    -0.372000000     2.922000000
C    -3.705000000    -1.586000000     2.315000000
H    -3.209000000    -2.421000000     2.803000000
C    -4.170000000    -1.819000000     1.016000000
O    -3.883000000    -2.995000000     0.488000000
C    -2.869000000    -3.082000000    -0.518000000
C    -1.993000000    -4.340000000    -0.407000000
C    -1.406000000    -4.905000000    -1.553000000
H    -1.625000000    -4.501000000    -2.538000000
C    -1.672000000    -4.879000000     0.842000000
H    -1.980000000    -4.458000000     1.795000000
O    -3.502000000    -2.972000000    -1.810000000
H    -2.117000000    -2.279000000    -0.489000000
C    -4.780000000    -0.749000000     0.347000000
C    -5.344000000    -0.950000000    -1.037000000
H    -6.129000000    -0.201000000    -1.157000000
H    -5.912000000    -1.872000000    -1.182000000
C    -4.255000000    -0.730000000    -2.066000000
C    -4.073000000     0.488000000    -2.666000000
H    -4.859000000     1.213000000    -2.473000000
C    -3.484000000    -1.712000000    -2.468000000
C    -2.463000000    -1.566000000    -3.414000000
H    -1.819000000    -2.409000000    -3.651000000
C    -2.228000000    -0.325000000    -4.000000000
O    -1.061000000    -0.010000000    -4.770000000
C    -0.045000000     0.697000000    -4.076000000
C     1.248000000     0.044000000    -4.441000000
C     1.361000000    -1.339000000    -4.498000000
H     0.490000000    -1.952000000    -4.276000000
C     2.366000000     0.802000000    -4.720000000
H     2.241000000     1.880000000    -4.673000000
O    -0.078000000     1.984000000    -4.610000000
H    -0.320000000     0.802000000    -3.016000000
C    -3.072000000     0.714000000    -3.611000000
C    -3.091000000     2.132000000    -4.110000000
H    -4.071000000     2.603000000    -4.004000000
H    -2.850000000     2.168000000    -5.175000000
C    -2.013000000     2.998000000    -3.438000000
C    -0.656000000     2.922000000    -3.769000000
C     0.299000000     3.603000000    -2.983000000
H     1.368000000     3.413000000    -3.036000000
C    -0.129000000     4.364000000    -1.928000000
O     0.857000000     4.822000000    -1.079000000
C     1.143000000     4.253000000     0.163000000
H     0.677000000     3.258000000     0.110000000
C     2.656000000     3.941000000     0.400000000
C     2.944000000     3.400000000     1.669000000
H     2.192000000     3.417000000     2.454000000
C     3.581000000     3.881000000    -0.588000000
H     3.226000000     4.140000000    -1.582000000
C     4.923000000     3.601000000    -0.291000000
O     5.872000000     3.696000000    -1.274000000
C     5.220000000     3.121000000     0.962000000
H     6.228000000     2.796000000     1.209000000
C     4.201000000     2.909000000     1.873000000
O     4.475000000     2.181000000     2.982000000
C     3.965000000     2.412000000     4.188000000
C     3.245000000     1.405000000     4.785000000
H     2.906000000     0.483000000     4.319000000
C     4.299000000     3.606000000     4.834000000
H     4.860000000     4.370000000     4.301000000
C     3.924000000     3.803000000     6.109000000
H     4.308000000     4.686000000     6.613000000
C     3.320000000     2.754000000     6.810000000
H     3.101000000     3.039000000     7.836000000
C     2.948000000     1.643000000     6.113000000
O     2.226000000     0.663000000     6.841000000
C     1.162000000    -0.057000000     6.313000000
C     1.172000000    -1.455000000     6.362000000
H     1.888000000    -1.980000000     6.988000000
C     0.272000000    -2.191000000     5.658000000
O     0.114000000    -3.539000000     5.962000000
C    -0.491000000    -4.519000000     5.244000000
C     0.086000000    -4.939000000     4.086000000
H     0.947000000    -4.384000000     3.723000000
C    -1.569000000    -5.213000000     5.850000000
H    -1.925000000    -4.808000000     6.794000000
C    -2.078000000    -6.312000000     5.179000000
H    -2.800000000    -6.940000000     5.695000000
C    -1.629000000    -6.587000000     3.909000000
H    -2.199000000    -7.293000000     3.310000000
C    -0.544000000    -5.928000000     3.385000000
O    -0.107000000    -6.311000000     2.145000000
C    -0.776000000    -6.020000000     0.958000000
C    -0.284000000    -6.599000000    -0.224000000
H     0.326000000    -7.494000000    -0.131000000
C    -0.645000000    -6.099000000    -1.452000000
O    -0.093000000    -6.734000000    -2.572000000
C     0.297000000    -5.959000000    -3.602000000
C     1.227000000    -4.896000000    -3.426000000
H     1.493000000    -4.574000000    -2.423000000
C    -0.228000000    -6.212000000    -4.845000000
H    -0.759000000    -7.134000000    -5.065000000
C     0.135000000    -5.398000000    -5.991000000
H    -0.274000000    -5.603000000    -6.977000000
C     1.069000000    -4.380000000    -5.829000000
H     1.342000000    -3.737000000    -6.661000000
C     1.683000000    -4.197000000    -4.548000000
O     2.708000000    -3.311000000    -4.342000000
C     2.593000000    -1.950000000    -4.564000000
C     3.735000000    -1.217000000    -4.864000000
H     4.709000000    -1.663000000    -4.682000000
C     3.579000000     0.170000000    -4.980000000
O     4.799000000     0.872000000    -5.025000000
C     4.993000000     2.184000000    -4.511000000
C     5.076000000     3.298000000    -5.340000000
H     4.958000000     3.118000000    -6.406000000
C     5.382000000     4.560000000    -4.802000000
H     5.440000000     5.422000000    -5.461000000
C     5.578000000     4.658000000    -3.458000000
H     5.805000000     5.622000000    -3.010000000
C     5.595000000     3.565000000    -2.631000000
C     5.217000000     2.332000000    -3.120000000
H     5.229000000     1.415000000    -2.537000000
C     1.386000000    -2.830000000     1.004000000
H     1.388000000    -3.747000000     1.588000000
C     0.374000000    -1.884000000     1.170000000
H    -0.459000000    -2.006000000     1.859000000
C     0.560000000    -0.690000000     0.476000000
H    -0.125000000     0.155000000     0.647000000
C     1.663000000    -0.480000000    -0.383000000
H     1.749000000     0.462000000    -0.918000000
C     2.641000000    -1.435000000    -0.569000000
H     3.495000000    -1.296000000    -1.228000000
C     2.476000000    -2.653000000     0.169000000
C     3.503000000    -3.731000000     0.062000000
O     4.405000000    -3.596000000    -0.748000000
O     3.530000000    -4.713000000     0.795000000
O     7.610000000    -5.129000000     4.879000000
H     7.263000000    -5.770000000     5.499000000
H     6.851000000    -4.863000000     4.360000000
O     9.178000000    -2.488000000     0.035000000
H     8.606000000    -1.899000000    -0.459000000
H     8.800000000    -2.506000000     0.914000000
O     1.337000000    -9.507000000    -2.887000000
H     1.961000000    -9.464000000    -2.163000000
H     1.100000000    -8.595000000    -3.055000000
O     7.677000000    -4.517000000    -4.460000000
H     6.965000000    -4.817000000    -3.895000000
H     7.547000000    -4.992000000    -5.281000000
O     3.482000000    -9.299000000    -1.230000000
H     4.338000000    -9.717000000    -1.138000000
H     3.564000000    -8.477000000    -0.746000000
O     6.534000000    -1.974000000    -1.600000000
H     7.051000000    -2.369000000    -2.302000000
H     5.937000000    -2.669000000    -1.323000000
O     5.005000000    -0.540000000     0.998000000
H     5.534000000    -0.978000000     0.330000000
H     4.119000000    -0.876000000     0.860000000
O     4.894000000    -8.411000000     4.415000000
H     4.276000000    -7.755000000     4.092000000
H     5.542000000    -7.908000000     4.909000000
O     5.573000000    -5.974000000    -0.486000000
H     4.800000000    -6.535000000    -0.414000000
H     5.238000000    -5.087000000    -0.353000000
O     5.783000000    -3.923000000     2.899000000
H     5.439000000    -4.250000000     2.068000000
H     5.054000000    -3.440000000     3.287000000
O     8.051000000    -6.717000000     0.875000000
H     7.233000000    -6.314000000     0.582000000
H     7.799000000    -7.601000000     1.144000000
O     7.722000000    -2.103000000     2.249000000
H     6.974000000    -2.696000000     2.330000000
H     8.025000000    -1.975000000     3.148000000
O     3.473000000    -7.340000000     0.488000000
H     4.020000000    -7.508000000     1.255000000
H     3.263000000    -6.408000000     0.543000000
O     5.902000000    -7.409000000    -3.270000000
H     5.700000000    -6.784000000    -2.574000000
H     5.450000000    -7.066000000    -4.040000000
O     4.237000000    -6.842000000    -5.263000000
H     4.644000000    -6.785000000    -6.127000000
H     3.517000000    -7.462000000    -5.378000000
O     3.449000000    -6.300000000     3.276000000
H     3.689000000    -5.418000000     2.993000000
H     2.632000000    -6.486000000     2.813000000
O     4.995000000    -4.664000000    -3.151000000
H     4.797000000    -4.273000000    -2.300000000
H     4.142000000    -4.764000000    -3.573000000
O     8.123000000     0.181000000    -3.023000000
H     8.298000000    -0.417000000    -3.750000000
H     7.446000000    -0.258000000    -2.509000000
O     7.094000000     1.080000000     2.771000000
H     6.700000000     0.388000000     2.240000000
H     6.457000000     1.240000000     3.467000000
