215
-1444.91660
C    -2.443000000    -1.496000000    -3.996000000
H    -1.653000000    -2.243000000    -3.995000000
C    -2.101000000    -0.155000000    -4.220000000
C    -3.128000000     0.790000000    -4.243000000
H    -2.955000000     1.842000000    -4.453000000
C    -0.600000000     0.248000000    -4.248000000
O     0.179000000    -0.689000000    -4.972000000
H    -0.453000000     0.135000000    -3.164000000
O    -0.441000000     1.619000000    -4.719000000
C     0.395000000     2.442000000    -3.959000000
C    -0.167000000     3.399000000    -3.134000000
H    -1.241000000     3.554000000    -3.205000000
C     0.575000000     4.018000000    -2.104000000
O    -0.067000000     4.802000000    -1.213000000
C     1.996000000     3.848000000    -2.067000000
C     2.860000000     4.547000000    -1.052000000
H     3.848000000     4.858000000    -1.396000000
C     2.796000000     3.835000000     0.270000000
C     3.818000000     2.934000000     0.469000000
H     4.568000000     2.742000000    -0.295000000
H     2.412000000     5.509000000    -0.792000000
C     2.577000000     3.031000000    -2.948000000
H     3.659000000     2.935000000    -2.944000000
C     1.755000000     2.234000000    -3.816000000
C     2.408000000     1.201000000    -4.809000000
H     3.390000000     1.625000000    -5.027000000
H     1.861000000     1.181000000    -5.754000000
C     2.468000000    -0.230000000    -4.280000000
C     3.616000000    -0.647000000    -3.589000000
H     4.409000000     0.091000000    -3.500000000
C     1.379000000    -1.065000000    -4.419000000
C     1.501000000    -2.306000000    -3.817000000
H     0.716000000    -3.047000000    -3.943000000
C     2.604000000    -2.697000000    -3.075000000
O     2.487000000    -3.897000000    -2.423000000
C     2.154000000    -3.830000000    -0.989000000
C     1.264000000    -4.926000000    -0.519000000
C     1.105000000    -5.112000000     0.858000000
H     1.682000000    -4.526000000     1.568000000
C     0.561000000    -5.636000000    -1.454000000
H     0.689000000    -5.545000000    -2.529000000
O     3.389000000    -3.780000000    -0.160000000
H     1.553000000    -2.920000000    -0.852000000
C     3.714000000    -1.851000000    -2.920000000
C     4.806000000    -2.103000000    -1.918000000
H     5.711000000    -1.573000000    -2.223000000
H     5.163000000    -3.132000000    -1.840000000
C     4.426000000    -1.689000000    -0.546000000
C     4.860000000    -0.458000000    -0.020000000
H     5.436000000     0.253000000    -0.607000000
C     3.666000000    -2.529000000     0.280000000
C     3.350000000    -2.205000000     1.531000000
H     2.715000000    -2.809000000     2.175000000
C     3.860000000    -1.033000000     2.047000000
O     3.478000000    -0.708000000     3.364000000
C     2.413000000     0.310000000     3.540000000
C     1.359000000    -0.023000000     4.577000000
C     1.055000000    -1.369000000     4.838000000
H     1.644000000    -2.183000000     4.423000000
C     0.583000000     0.908000000     5.198000000
H     0.651000000     1.972000000     4.985000000
O     2.958000000     1.665000000     3.751000000
H     1.813000000     0.496000000     2.637000000
C     4.568000000    -0.157000000     1.276000000
C     4.966000000     1.184000000     1.894000000
H     5.849000000     1.599000000     1.404000000
H     5.316000000     0.984000000     2.909000000
C     3.844000000     2.215000000     1.691000000
C     2.927000000     2.484000000     2.691000000
C     1.805000000     3.304000000     2.487000000
H     1.029000000     3.472000000     3.230000000
C     1.762000000     3.968000000     1.236000000
O     0.721000000     4.872000000     1.043000000
C    -0.258000000     4.281000000     0.149000000
H    -0.129000000     3.192000000     0.244000000
C    -1.699000000     4.423000000     0.659000000
C    -2.755000000     4.371000000    -0.213000000
H    -2.652000000     4.452000000    -1.292000000
C    -1.955000000     4.437000000     2.040000000
H    -1.227000000     4.421000000     2.847000000
C    -3.247000000     4.566000000     2.469000000
O    -3.618000000     4.561000000     3.846000000
C    -4.298000000     4.719000000     1.591000000
H    -5.261000000     4.943000000     2.042000000
C    -4.052000000     4.587000000     0.215000000
O    -5.036000000     5.005000000    -0.711000000
C    -5.066000000     4.552000000    -1.980000000
C    -5.127000000     3.179000000    -2.317000000
H    -5.282000000     2.452000000    -1.524000000
C    -4.806000000     5.495000000    -3.043000000
H    -4.707000000     6.568000000    -2.902000000
C    -4.780000000     4.936000000    -4.384000000
H    -4.578000000     5.702000000    -5.129000000
C    -4.908000000     3.566000000    -4.645000000
H    -4.892000000     3.132000000    -5.641000000
C    -5.225000000     2.752000000    -3.610000000
O    -5.449000000     1.456000000    -3.875000000
C    -4.452000000     0.508000000    -3.963000000
C    -4.776000000    -0.844000000    -3.691000000
H    -5.760000000    -1.284000000    -3.552000000
C    -3.777000000    -1.806000000    -3.700000000
O    -4.181000000    -3.098000000    -3.408000000
C    -3.390000000    -4.216000000    -3.759000000
C    -2.797000000    -4.997000000    -2.713000000
H    -3.012000000    -4.757000000    -1.674000000
C    -3.385000000    -4.743000000    -5.076000000
H    -3.819000000    -4.088000000    -5.828000000
C    -2.684000000    -5.968000000    -5.322000000
H    -2.650000000    -6.419000000    -6.310000000
C    -2.043000000    -6.637000000    -4.295000000
H    -1.639000000    -7.625000000    -4.500000000
C    -2.044000000    -6.122000000    -2.986000000
O    -1.388000000    -6.842000000    -1.962000000
C    -0.490000000    -6.414000000    -1.035000000
C    -0.598000000    -6.665000000     0.313000000
H    -1.328000000    -7.353000000     0.731000000
C     0.187000000    -6.093000000     1.296000000
O    -0.065000000    -6.368000000     2.634000000
C     0.585000000    -5.764000000     3.651000000
C    -0.090000000    -4.737000000     4.278000000
H    -1.092000000    -4.476000000     3.945000000
C     1.858000000    -6.135000000     3.969000000
H     2.299000000    -6.947000000     3.395000000
C     2.535000000    -5.461000000     5.016000000
H     3.565000000    -5.699000000     5.271000000
C     1.829000000    -4.437000000     5.697000000
H     2.163000000    -3.984000000     6.627000000
C     0.501000000    -4.158000000     5.363000000
O    -0.145000000    -3.147000000     5.993000000
C     0.112000000    -1.821000000     5.689000000
C    -0.538000000    -0.825000000     6.481000000
H    -1.332000000    -1.145000000     7.151000000
C    -0.387000000     0.523000000     6.097000000
O    -1.314000000     1.372000000     6.688000000
C    -1.496000000     2.696000000     6.287000000
C    -0.952000000     3.787000000     7.000000000
H    -0.313000000     3.641000000     7.868000000
C    -1.240000000     5.088000000     6.629000000
H    -0.870000000     5.970000000     7.146000000
C    -2.036000000     5.332000000     5.508000000
H    -2.374000000     6.342000000     5.290000000
C    -2.734000000     4.296000000     4.906000000
C    -2.394000000     2.956000000     5.239000000
H    -2.844000000     2.214000000     4.584000000
C    -0.693000000    -1.194000000     1.364000000
H    -0.401000000    -2.014000000     2.015000000
C     0.255000000    -0.622000000     0.505000000
H     1.308000000    -0.870000000     0.603000000
C     0.035000000     0.439000000    -0.353000000
H     0.894000000     0.807000000    -1.027000000
C    -1.246000000     0.966000000    -0.341000000
H    -1.498000000     1.819000000    -0.965000000
C    -2.290000000     0.446000000     0.469000000
H    -3.286000000     0.872000000     0.382000000
C    -2.014000000    -0.615000000     1.393000000
C    -3.089000000    -1.016000000     2.332000000
O    -4.213000000    -0.573000000     2.181000000
O    -2.894000000    -1.915000000     3.085000000
O    -5.765000000     1.713000000     2.292000000
H    -6.286000000     1.429000000     3.043000000
H    -5.184000000     0.974000000     2.110000000
O    -4.127000000    -4.196000000     2.104000000
H    -4.902000000    -3.991000000     1.581000000
H    -3.701000000    -3.350000000     2.243000000
O    -4.831000000    -1.792000000    -0.036000000
H    -4.093000000    -1.475000000    -0.556000000
H    -4.721000000    -1.371000000     0.817000000
O    -2.843000000    -4.888000000     7.788000000
H    -3.015000000    -4.001000000     8.103000000
H    -3.308000000    -4.941000000     6.953000000
O    -8.663000000     2.909000000     3.360000000
H    -8.682000000     2.256000000     2.660000000
H    -8.457000000     3.731000000     2.915000000
O    -7.879000000     2.524000000     0.290000000
H    -7.036000000     2.204000000     0.610000000
H    -8.098000000     1.938000000    -0.435000000
O    -6.228000000    -4.264000000    -2.052000000
H    -5.845000000    -4.189000000    -1.178000000
H    -5.481000000    -4.193000000    -2.647000000
O    -7.540000000     1.035000000    -1.981000000
H    -6.975000000     1.008000000    -2.752000000
H    -7.501000000     0.147000000    -1.624000000
O    -7.943000000    -1.719000000     1.410000000
H    -8.637000000    -1.099000000     1.633000000
H    -7.787000000    -1.579000000     0.476000000
O    -5.044000000    -6.581000000     2.894000000
H    -4.721000000    -5.744000000     2.560000000
H    -5.792000000    -6.346000000     3.444000000
O    -6.160000000    -3.114000000     6.061000000
H    -6.408000000    -2.574000000     5.312000000
H    -5.769000000    -2.499000000     6.682000000
O    -6.099000000    -1.875000000     3.391000000
H    -6.718000000    -1.977000000     2.668000000
H    -5.367000000    -1.388000000     3.012000000
O    -5.805000000     0.581000000     5.901000000
H    -6.476000000     0.212000000     6.475000000
H    -5.251000000    -0.165000000     5.670000000
O    -7.432000000    -1.648000000    -1.164000000
H    -7.482000000    -2.321000000    -1.843000000
H    -6.549000000    -1.733000000    -0.807000000
O    -4.127000000    -4.881000000     5.440000000
H    -4.765000000    -4.209000000     5.681000000
H    -3.743000000    -4.564000000     4.623000000
O    -5.522000000     3.427000000     6.251000000
H    -5.453000000     2.500000000     6.024000000
H    -5.879000000     3.841000000     5.465000000
O    -8.927000000    -1.431000000     4.642000000
H    -9.114000000    -2.323000000     4.349000000
H    -9.006000000    -0.897000000     3.851000000
O    -3.753000000    -1.225000000     5.937000000
H    -2.931000000    -0.750000000     6.056000000
H    -3.638000000    -1.702000000     5.115000000
O    -6.730000000    -4.106000000     0.952000000
H    -7.327000000    -4.665000000     1.450000000
H    -6.968000000    -3.215000000     1.206000000
