215
-1462.50474
C    -0.401000000    -1.813000000     5.309000000
H    -1.202000000    -2.453000000     4.948000000
C    -0.473000000    -0.455000000     5.034000000
C     0.607000000     0.362000000     5.300000000
H     0.629000000     1.397000000     4.969000000
C    -1.652000000     0.130000000     4.233000000
O    -2.816000000    -0.725000000     4.338000000
H    -1.404000000     0.183000000     3.163000000
O    -2.120000000     1.458000000     4.569000000
C    -2.290000000     2.358000000     3.489000000
C    -1.147000000     3.062000000     3.053000000
H    -0.197000000     2.867000000     3.543000000
C    -1.167000000     3.820000000     1.931000000
O    -0.005000000     4.483000000     1.486000000
C    -2.340000000     3.938000000     1.206000000
C    -2.489000000     4.860000000    -0.011000000
H    -3.524000000     5.195000000    -0.104000000
C    -1.999000000     4.175000000    -1.232000000
C    -2.913000000     3.565000000    -2.092000000
H    -3.954000000     3.521000000    -1.784000000
H    -1.820000000     5.719000000     0.079000000
C    -3.439000000     3.157000000     1.615000000
H    -4.347000000     3.208000000     1.020000000
C    -3.428000000     2.396000000     2.736000000
C    -4.633000000     1.497000000     3.127000000
H    -5.583000000     1.970000000     2.870000000
H    -4.649000000     1.498000000     4.219000000
C    -4.427000000     0.088000000     2.640000000
C    -4.995000000    -0.211000000     1.416000000
H    -5.629000000     0.495000000     0.885000000
C    -3.527000000    -0.860000000     3.142000000
C    -3.279000000    -2.071000000     2.407000000
H    -2.575000000    -2.821000000     2.757000000
C    -3.916000000    -2.314000000     1.227000000
O    -3.560000000    -3.494000000     0.557000000
C    -2.506000000    -3.286000000    -0.430000000
C    -1.453000000    -4.334000000    -0.381000000
C    -0.610000000    -4.508000000    -1.424000000
H    -0.810000000    -3.897000000    -2.301000000
C    -1.282000000    -5.000000000     0.804000000
H    -2.001000000    -4.897000000     1.613000000
O    -3.172000000    -3.260000000    -1.721000000
H    -2.034000000    -2.299000000    -0.314000000
C    -4.721000000    -1.350000000     0.641000000
C    -5.302000000    -1.470000000    -0.744000000
H    -6.203000000    -0.857000000    -0.685000000
H    -5.590000000    -2.521000000    -0.816000000
C    -4.343000000    -1.186000000    -1.847000000
C    -4.355000000     0.106000000    -2.367000000
H    -5.169000000     0.755000000    -2.056000000
C    -3.378000000    -2.080000000    -2.303000000
C    -2.510000000    -1.684000000    -3.335000000
H    -1.813000000    -2.425000000    -3.717000000
C    -2.535000000    -0.405000000    -3.864000000
O    -1.537000000    -0.002000000    -4.796000000
C    -0.420000000     0.761000000    -4.280000000
C     0.973000000     0.298000000    -4.759000000
C     1.047000000    -1.006000000    -5.200000000
H     0.183000000    -1.665000000    -5.155000000
C     2.128000000     1.025000000    -4.631000000
H     2.147000000     2.037000000    -4.234000000
O    -0.556000000     2.195000000    -4.516000000
H    -0.498000000     0.526000000    -3.208000000
C    -3.453000000     0.513000000    -3.361000000
C    -3.440000000     1.959000000    -3.941000000
H    -4.430000000     2.411000000    -3.850000000
H    -3.267000000     2.077000000    -5.012000000
C    -2.438000000     2.826000000    -3.200000000
C    -1.114000000     2.994000000    -3.552000000
C    -0.257000000     3.707000000    -2.757000000
H     0.800000000     3.652000000    -3.003000000
C    -0.614000000     4.255000000    -1.532000000
O     0.340000000     4.776000000    -0.756000000
C     0.737000000     3.983000000     0.370000000
H     0.595000000     2.912000000     0.165000000
C     2.265000000     4.128000000     0.483000000
C     2.918000000     3.679000000     1.636000000
H     2.280000000     3.441000000     2.483000000
C     3.054000000     4.419000000    -0.639000000
H     2.572000000     4.716000000    -1.567000000
C     4.429000000     4.357000000    -0.557000000
O     5.242000000     4.646000000    -1.642000000
C     5.071000000     3.937000000     0.554000000
H     6.156000000     3.995000000     0.527000000
C     4.320000000     3.608000000     1.693000000
O     4.974000000     3.493000000     2.853000000
C     4.334000000     3.228000000     4.030000000
C     3.935000000     1.950000000     4.350000000
H     4.229000000     1.142000000     3.686000000
C     4.066000000     4.270000000     4.948000000
H     4.471000000     5.250000000     4.706000000
C     3.337000000     4.052000000     6.118000000
H     3.182000000     4.884000000     6.800000000
C     2.970000000     2.737000000     6.487000000
H     2.612000000     2.509000000     7.487000000
C     3.261000000     1.660000000     5.581000000
O     2.922000000     0.368000000     5.982000000
C     1.761000000    -0.283000000     5.763000000
C     1.816000000    -1.670000000     6.095000000
H     2.707000000    -2.088000000     6.556000000
C     0.710000000    -2.400000000     5.851000000
O     0.896000000    -3.754000000     6.013000000
C     0.108000000    -4.645000000     5.310000000
C     0.486000000    -5.094000000     4.050000000
H     1.433000000    -4.822000000     3.590000000
C    -1.109000000    -5.056000000     5.842000000
H    -1.241000000    -4.758000000     6.879000000
C    -1.944000000    -5.987000000     5.121000000
H    -2.885000000    -6.293000000     5.571000000
C    -1.442000000    -6.473000000     3.891000000
H    -2.103000000    -7.161000000     3.370000000
C    -0.235000000    -6.026000000     3.356000000
O     0.161000000    -6.453000000     2.086000000
C    -0.133000000    -5.824000000     0.929000000
C     0.706000000    -5.995000000    -0.113000000
H     1.567000000    -6.652000000    -0.027000000
C     0.433000000    -5.445000000    -1.342000000
O     1.250000000    -5.804000000    -2.406000000
C     1.052000000    -5.402000000    -3.715000000
C     1.771000000    -4.266000000    -4.230000000
H     2.514000000    -3.688000000    -3.686000000
C     0.103000000    -6.122000000    -4.543000000
H    -0.506000000    -6.954000000    -4.198000000
C    -0.034000000    -5.647000000    -5.894000000
H    -0.744000000    -6.149000000    -6.546000000
C     0.751000000    -4.630000000    -6.386000000
H     0.732000000    -4.283000000    -7.416000000
C     1.664000000    -3.991000000    -5.562000000
O     2.174000000    -2.896000000    -6.095000000
C     2.269000000    -1.593000000    -5.544000000
C     3.478000000    -0.923000000    -5.343000000
H     4.401000000    -1.345000000    -5.732000000
C     3.401000000     0.426000000    -4.986000000
O     4.561000000     1.089000000    -4.677000000
C     4.707000000     2.417000000    -4.401000000
C     4.805000000     3.307000000    -5.471000000
H     4.945000000     2.800000000    -6.422000000
C     5.076000000     4.676000000    -5.251000000
H     5.372000000     5.359000000    -6.043000000
C     5.135000000     5.088000000    -3.915000000
H     5.498000000     6.060000000    -3.590000000
C     5.081000000     4.170000000    -2.887000000
C     4.912000000     2.862000000    -3.125000000
H     4.808000000     2.098000000    -2.359000000
C     1.460000000    -2.810000000     1.124000000
H     1.860000000    -3.678000000     1.641000000
C     0.400000000    -2.018000000     1.606000000
H    -0.033000000    -2.411000000     2.523000000
C    -0.134000000    -1.087000000     0.687000000
H    -1.051000000    -0.651000000     1.011000000
C     0.415000000    -0.813000000    -0.528000000
H    -0.043000000    -0.030000000    -1.127000000
C     1.519000000    -1.554000000    -0.925000000
H     1.878000000    -1.391000000    -1.938000000
C     2.058000000    -2.582000000    -0.137000000
C     3.190000000    -3.454000000    -0.642000000
O     3.670000000    -3.209000000    -1.689000000
O     3.593000000    -4.376000000    -0.034000000
O     3.850000000    -4.754000000     2.531000000
H     4.782000000    -4.927000000     2.658000000
H     3.749000000    -4.665000000     1.583000000
O     3.639000000    -2.044000000     3.645000000
H     3.605000000    -2.951000000     3.341000000
H     4.493000000    -1.966000000     4.071000000
O     6.302000000    -4.257000000    -0.946000000
H     5.348000000    -4.254000000    -0.864000000
H     6.557000000    -3.344000000    -0.817000000
O     6.694000000    -5.332000000     3.126000000
H     7.609000000    -5.225000000     3.387000000
H     6.509000000    -6.259000000     3.278000000
O     3.680000000    -5.347000000     5.278000000
H     3.523000000    -5.083000000     4.371000000
H     2.906000000    -5.044000000     5.753000000
O     3.616000000     0.822000000    -0.486000000
H     3.541000000    -0.049000000    -0.878000000
H     2.832000000     0.909000000     0.056000000
O     3.523000000    -7.650000000    -4.924000000
H     3.707000000    -6.930000000    -4.321000000
H     3.188000000    -7.223000000    -5.713000000
O     6.770000000    -1.698000000    -0.299000000
H     6.637000000    -0.937000000     0.267000000
H     6.767000000    -1.340000000    -1.186000000
O     8.271000000    -6.257000000    -0.504000000
H     7.777000000    -6.918000000    -0.019000000
H     7.619000000    -5.597000000    -0.741000000
O     5.769000000     0.497000000     1.085000000
H     6.353000000     1.153000000     0.705000000
H     4.909000000     0.700000000     0.715000000
O     4.230000000    -6.200000000    -2.807000000
H     4.069000000    -6.877000000    -2.150000000
H     3.777000000    -5.426000000    -2.470000000
O     8.077000000    -3.533000000     1.359000000
H     8.192000000    -2.887000000     0.661000000
H     7.309000000    -4.039000000     1.093000000
O     5.075000000    -3.553000000    -6.776000000
H     5.849000000    -4.088000000    -6.952000000
H     4.864000000    -3.732000000    -5.859000000
O     6.503000000    -2.737000000     4.215000000
H     7.102000000    -2.990000000     4.917000000
H     6.380000000    -3.538000000     3.706000000
O     4.278000000    -7.177000000    -0.065000000
H     4.956000000    -7.316000000     0.596000000
H     4.102000000    -6.236000000    -0.033000000
O     5.268000000    -3.696000000    -3.930000000
H     4.931000000    -4.566000000    -3.716000000
H     5.194000000    -3.203000000    -3.113000000
O     1.162000000    -8.634000000    -1.635000000
H     1.534000000    -7.836000000    -2.010000000
H     0.217000000    -8.479000000    -1.631000000
O     1.993000000     0.347000000     2.237000000
H     2.475000000    -0.240000000     2.818000000
H     1.277000000    -0.188000000     1.896000000
O     8.035000000    -3.830000000    -4.044000000
H     7.123000000    -3.963000000    -3.787000000
H     8.499000000    -4.582000000    -3.677000000
