215
-1454.82992
C    -0.641000000    -2.123000000     4.569000000
H    -1.552000000    -2.574000000     4.184000000
C    -0.531000000    -0.744000000     4.486000000
C     0.771000000    -0.153000000     4.713000000
H     0.949000000     0.895000000     4.485000000
C    -1.702000000     0.036000000     3.864000000
O    -2.971000000    -0.603000000     3.875000000
H    -1.427000000     0.144000000     2.804000000
O    -1.769000000     1.359000000     4.361000000
C    -1.895000000     2.343000000     3.413000000
C    -0.695000000     2.972000000     3.051000000
H     0.203000000     2.712000000     3.605000000
C    -0.690000000     3.956000000     2.085000000
O     0.500000000     4.613000000     1.800000000
C    -1.826000000     4.194000000     1.355000000
C    -1.647000000     5.212000000     0.246000000
H    -2.507000000     5.840000000     0.003000000
C    -1.197000000     4.600000000    -1.036000000
C    -2.205000000     4.089000000    -1.903000000
H    -3.271000000     4.216000000    -1.734000000
H    -0.942000000     6.007000000     0.498000000
C    -3.001000000     3.519000000     1.595000000
H    -3.857000000     3.712000000     0.953000000
C    -3.089000000     2.602000000     2.633000000
C    -4.350000000     1.849000000     2.974000000
H    -5.217000000     2.398000000     2.600000000
H    -4.493000000     1.721000000     4.049000000
C    -4.337000000     0.510000000     2.124000000
C    -5.021000000     0.461000000     0.859000000
H    -5.457000000     1.325000000     0.364000000
C    -3.661000000    -0.603000000     2.709000000
C    -3.655000000    -1.780000000     1.924000000
H    -3.128000000    -2.620000000     2.368000000
C    -4.216000000    -1.886000000     0.654000000
O    -4.068000000    -3.081000000    -0.010000000
C    -2.965000000    -3.139000000    -0.940000000
C    -2.028000000    -4.391000000    -0.826000000
C    -1.094000000    -4.587000000    -1.860000000
H    -1.143000000    -3.920000000    -2.717000000
C    -2.022000000    -5.153000000     0.226000000
H    -2.880000000    -5.030000000     0.881000000
O    -3.582000000    -2.910000000    -2.282000000
H    -2.351000000    -2.266000000    -0.674000000
C    -4.841000000    -0.714000000     0.103000000
C    -5.472000000    -0.753000000    -1.257000000
H    -6.220000000     0.032000000    -1.385000000
H    -5.942000000    -1.733000000    -1.362000000
C    -4.380000000    -0.581000000    -2.289000000
C    -4.135000000     0.748000000    -2.736000000
H    -4.759000000     1.529000000    -2.310000000
C    -3.581000000    -1.571000000    -2.762000000
C    -2.533000000    -1.227000000    -3.586000000
H    -1.816000000    -2.010000000    -3.819000000
C    -2.248000000     0.060000000    -4.018000000
O    -1.103000000     0.275000000    -4.793000000
C     0.047000000     0.802000000    -4.064000000
C     1.369000000     0.195000000    -4.443000000
C     1.408000000    -1.026000000    -5.110000000
H     0.534000000    -1.666000000    -5.195000000
C     2.554000000     0.934000000    -4.377000000
H     2.605000000     1.910000000    -3.900000000
O     0.095000000     2.279000000    -4.203000000
H    -0.107000000     0.587000000    -2.996000000
C    -3.077000000     1.104000000    -3.617000000
C    -2.797000000     2.628000000    -3.940000000
H    -3.773000000     3.117000000    -3.963000000
H    -2.465000000     2.615000000    -4.980000000
C    -1.744000000     3.329000000    -3.022000000
C    -0.387000000     3.120000000    -3.214000000
C     0.489000000     3.746000000    -2.433000000
H     1.565000000     3.715000000    -2.582000000
C     0.093000000     4.351000000    -1.291000000
O     1.044000000     4.675000000    -0.433000000
C     1.304000000     3.997000000     0.785000000
H     0.998000000     2.951000000     0.635000000
C     2.769000000     3.985000000     1.118000000
C     3.150000000     3.758000000     2.443000000
H     2.399000000     3.629000000     3.219000000
C     3.737000000     4.022000000     0.100000000
H     3.405000000     4.161000000    -0.926000000
C     5.067000000     3.830000000     0.347000000
O     5.998000000     3.824000000    -0.679000000
C     5.433000000     3.668000000     1.678000000
H     6.482000000     3.527000000     1.928000000
C     4.505000000     3.648000000     2.747000000
O     4.918000000     3.501000000     4.088000000
C     4.069000000     2.978000000     5.035000000
C     4.073000000     1.647000000     5.150000000
H     4.714000000     0.988000000     4.570000000
C     3.151000000     3.821000000     5.757000000
H     3.182000000     4.886000000     5.546000000
C     2.225000000     3.219000000     6.640000000
H     1.598000000     3.856000000     7.260000000
C     2.229000000     1.823000000     6.755000000
H     1.558000000     1.324000000     7.448000000
C     3.035000000     1.059000000     5.875000000
O     2.887000000    -0.346000000     5.889000000
C     1.737000000    -0.906000000     5.394000000
C     1.541000000    -2.256000000     5.511000000
H     2.324000000    -2.839000000     5.990000000
C     0.395000000    -2.903000000     5.144000000
O     0.308000000    -4.264000000     5.208000000
C    -0.621000000    -4.962000000     4.486000000
C    -0.392000000    -5.684000000     3.318000000
H     0.590000000    -5.699000000     2.852000000
C    -1.864000000    -5.229000000     5.124000000
H    -2.048000000    -4.636000000     6.016000000
C    -2.856000000    -5.904000000     4.531000000
H    -3.872000000    -5.850000000     4.913000000
C    -2.569000000    -6.605000000     3.319000000
H    -3.395000000    -7.115000000     2.831000000
C    -1.373000000    -6.422000000     2.706000000
O    -1.251000000    -7.043000000     1.471000000
C    -1.152000000    -6.223000000     0.390000000
C    -0.247000000    -6.531000000    -0.597000000
H     0.485000000    -7.296000000    -0.351000000
C    -0.273000000    -5.767000000    -1.750000000
O     0.694000000    -6.014000000    -2.697000000
C     0.620000000    -5.402000000    -3.913000000
C     1.563000000    -4.377000000    -4.155000000
H     2.205000000    -4.052000000    -3.340000000
C    -0.266000000    -5.832000000    -4.885000000
H    -1.057000000    -6.526000000    -4.610000000
C    -0.313000000    -5.252000000    -6.139000000
H    -1.017000000    -5.593000000    -6.894000000
C     0.687000000    -4.306000000    -6.468000000
H     0.768000000    -3.881000000    -7.465000000
C     1.599000000    -3.901000000    -5.470000000
O     2.542000000    -2.946000000    -5.818000000
C     2.606000000    -1.623000000    -5.403000000
C     3.820000000    -0.989000000    -5.153000000
H     4.735000000    -1.565000000    -5.266000000
C     3.825000000     0.347000000    -4.689000000
O     4.972000000     1.009000000    -4.471000000
C     5.042000000     2.272000000    -3.917000000
C     5.142000000     3.348000000    -4.785000000
H     4.940000000     3.147000000    -5.834000000
C     5.398000000     4.633000000    -4.213000000
H     5.457000000     5.464000000    -4.911000000
C     5.693000000     4.811000000    -2.845000000
H     6.009000000     5.785000000    -2.481000000
C     5.626000000     3.701000000    -1.999000000
C     5.264000000     2.420000000    -2.524000000
H     5.390000000     1.528000000    -1.916000000
C     0.093000000    -1.903000000     0.424000000
H    -0.416000000    -2.781000000     0.811000000
C    -0.425000000    -0.622000000     0.394000000
H    -1.388000000    -0.410000000     0.853000000
C     0.164000000     0.452000000    -0.192000000
H    -0.367000000     1.379000000    -0.173000000
C     1.480000000     0.285000000    -0.706000000
H     1.952000000     1.130000000    -1.203000000
C     2.056000000    -0.992000000    -0.637000000
H     3.067000000    -1.144000000    -1.007000000
C     1.409000000    -2.089000000     0.004000000
C     2.100000000    -3.439000000    -0.016000000
O     3.215000000    -3.504000000    -0.542000000
O     1.738000000    -4.292000000     0.772000000
O     5.609000000    -3.425000000     2.680000000
H     4.730000000    -3.793000000     2.590000000
H     6.175000000    -4.185000000     2.811000000
O     6.369000000    -1.129000000    -1.154000000
H     5.859000000    -1.270000000    -0.356000000
H     6.692000000    -0.232000000    -1.076000000
O     2.398000000    -6.893000000     1.111000000
H     2.128000000    -5.982000000     0.998000000
H     3.344000000    -6.847000000     1.252000000
O     5.112000000    -1.949000000     4.878000000
H     5.257000000    -2.493000000     4.105000000
H     4.253000000    -1.552000000     4.734000000
O     4.695000000    -3.173000000    -2.859000000
H     3.952000000    -3.123000000    -2.257000000
H     5.369000000    -2.627000000    -2.454000000
O     2.929000000    -4.141000000     3.005000000
H     2.536000000    -4.322000000     2.152000000
H     2.235000000    -4.337000000     3.635000000
O     7.122000000    -5.066000000    -1.866000000
H     6.489000000    -5.196000000    -1.159000000
H     6.611000000    -4.683000000    -2.578000000
O     2.626000000    -6.526000000     5.046000000
H     3.373000000    -6.346000000     4.475000000
H     2.861000000    -6.125000000     5.882000000
O     8.488000000    -2.728000000    -1.339000000
H     7.805000000    -3.390000000    -1.448000000
H     8.016000000    -1.938000000    -1.075000000
O     4.955000000    -5.418000000    -4.454000000
H     4.499000000    -6.040000000    -3.888000000
H     4.925000000    -4.590000000    -3.974000000
O     2.681000000    -7.671000000    -4.229000000
H     3.516000000    -8.140000000    -4.208000000
H     2.331000000    -7.844000000    -5.103000000
O     0.534000000    -9.197000000    -2.650000000
H     1.007000000    -9.619000000    -1.932000000
H     0.994000000    -8.368000000    -2.784000000
O     4.773000000    -7.095000000     2.444000000
H     5.467000000    -7.109000000     3.103000000
H     4.461000000    -7.999000000     2.406000000
O     0.875000000    -9.219000000     2.511000000
H     1.812000000    -9.180000000     2.703000000
H     0.754000000    -8.607000000     1.785000000
O     5.017000000    -5.305000000    -0.125000000
H     5.106000000    -5.467000000     0.814000000
H     4.300000000    -4.675000000    -0.193000000
O     2.433000000    -9.442000000    -0.257000000
H     3.215000000    -9.856000000     0.108000000
H     2.481000000    -8.534000000     0.043000000
O     4.564000000    -7.520000000    -2.147000000
H     3.645000000    -7.618000000    -1.900000000
H     4.963000000    -7.057000000    -1.410000000
O     4.627000000    -1.466000000     0.997000000
H     5.060000000    -2.154000000     1.503000000
H     4.007000000    -1.934000000     0.438000000
O     2.318000000     0.496000000     2.034000000
H     3.217000000     0.167000000     2.046000000
H     1.910000000     0.050000000     1.292000000
