215
-1453.45256
C     2.224000000     2.112000000    -3.845000000
H     2.306000000     1.149000000    -4.342000000
C     2.878000000     2.081000000    -2.514000000
C     2.762000000     3.255000000    -1.794000000
H     3.165000000     3.271000000    -0.784000000
C     3.414000000     0.823000000    -1.881000000
O     3.689000000    -0.098000000    -2.914000000
H     2.598000000     0.426000000    -1.260000000
O     4.523000000     1.115000000    -1.066000000
C     4.642000000     0.473000000     0.172000000
C     4.355000000     1.266000000     1.300000000
H     4.104000000     2.313000000     1.150000000
C     4.105000000     0.614000000     2.544000000
O     3.605000000     1.473000000     3.504000000
C     4.306000000    -0.769000000     2.749000000
C     3.798000000    -1.496000000     4.002000000
H     4.421000000    -2.389000000     4.084000000
C     2.332000000    -1.724000000     3.950000000
C     1.934000000    -3.006000000     3.626000000
H     2.601000000    -3.775000000     3.245000000
H     4.077000000    -0.928000000     4.892000000
C     4.692000000    -1.508000000     1.622000000
H     4.672000000    -2.590000000     1.724000000
C     4.860000000    -0.892000000     0.395000000
C     5.094000000    -1.781000000    -0.870000000
H     5.612000000    -2.722000000    -0.671000000
H     5.668000000    -1.186000000    -1.583000000
C     3.846000000    -2.176000000    -1.650000000
C     3.237000000    -3.411000000    -1.415000000
H     3.566000000    -3.935000000    -0.521000000
C     3.334000000    -1.390000000    -2.697000000
C     2.307000000    -1.844000000    -3.466000000
H     1.892000000    -1.169000000    -4.210000000
C     1.593000000    -2.975000000    -3.086000000
O     0.387000000    -3.406000000    -3.609000000
C    -0.757000000    -3.030000000    -2.942000000
C    -1.742000000    -2.312000000    -3.887000000
C    -3.057000000    -2.305000000    -3.545000000
H    -3.442000000    -2.937000000    -2.749000000
C    -1.321000000    -1.563000000    -4.953000000
H    -0.263000000    -1.479000000    -5.185000000
O    -1.328000000    -4.128000000    -2.279000000
H    -0.497000000    -2.259000000    -2.201000000
C     2.160000000    -3.838000000    -2.088000000
C     1.310000000    -5.143000000    -1.738000000
H     2.015000000    -5.880000000    -1.348000000
H     0.907000000    -5.618000000    -2.635000000
C     0.259000000    -4.819000000    -0.592000000
C     0.630000000    -5.004000000     0.735000000
H     1.651000000    -5.348000000     0.883000000
C    -0.970000000    -4.399000000    -0.947000000
C    -2.009000000    -4.232000000    -0.028000000
H    -2.995000000    -3.898000000    -0.341000000
C    -1.645000000    -4.323000000     1.287000000
O    -2.485000000    -3.802000000     2.216000000
C    -2.272000000    -2.395000000     2.512000000
C    -3.580000000    -1.543000000     2.366000000
C    -4.578000000    -1.944000000     1.485000000
H    -4.560000000    -2.906000000     0.980000000
C    -3.732000000    -0.329000000     3.043000000
H    -3.011000000    -0.025000000     3.796000000
O    -1.676000000    -2.283000000     3.813000000
H    -1.560000000    -1.960000000     1.796000000
C    -0.331000000    -4.636000000     1.680000000
C     0.014000000    -4.625000000     3.141000000
H     0.679000000    -5.477000000     3.298000000
H    -0.888000000    -4.758000000     3.742000000
C     0.595000000    -3.274000000     3.596000000
C    -0.316000000    -2.166000000     3.874000000
C     0.132000000    -0.936000000     4.294000000
H    -0.590000000    -0.136000000     4.436000000
C     1.463000000    -0.696000000     4.392000000
O     1.818000000     0.563000000     4.819000000
C     2.162000000     1.467000000     3.717000000
H     1.714000000     1.196000000     2.750000000
C     1.696000000     2.939000000     4.007000000
C     2.416000000     4.076000000     3.624000000
H     3.400000000     3.986000000     3.170000000
C     0.413000000     3.012000000     4.510000000
H    -0.112000000     2.152000000     4.916000000
C    -0.187000000     4.281000000     4.623000000
O    -1.517000000     4.538000000     4.967000000
C     0.571000000     5.419000000     4.353000000
H     0.178000000     6.413000000     4.548000000
C     1.814000000     5.313000000     3.803000000
O     2.414000000     6.416000000     3.239000000
C     2.827000000     6.415000000     1.866000000
C     2.021000000     6.045000000     0.847000000
H     0.958000000     5.875000000     1.003000000
C     4.110000000     6.883000000     1.616000000
H     4.728000000     7.214000000     2.447000000
C     4.585000000     6.999000000     0.344000000
H     5.534000000     7.515000000     0.221000000
C     3.780000000     6.439000000    -0.687000000
H     4.084000000     6.453000000    -1.730000000
C     2.556000000     5.897000000    -0.458000000
O     1.744000000     5.475000000    -1.546000000
C     2.075000000     4.372000000    -2.298000000
C     1.436000000     4.323000000    -3.529000000
H     0.871000000     5.155000000    -3.942000000
C     1.582000000     3.223000000    -4.278000000
O     0.864000000     3.329000000    -5.420000000
C     0.649000000     2.415000000    -6.447000000
C    -0.284000000     1.465000000    -6.116000000
H    -0.809000000     1.322000000    -5.175000000
C     1.270000000     2.417000000    -7.720000000
H     2.077000000     3.088000000    -8.005000000
C     0.910000000     1.396000000    -8.630000000
H     1.523000000     1.240000000    -9.514000000
C    -0.010000000     0.425000000    -8.276000000
H    -0.253000000    -0.394000000    -8.948000000
C    -0.651000000     0.519000000    -7.060000000
O    -1.693000000    -0.307000000    -6.879000000
C    -2.088000000    -0.802000000    -5.683000000
C    -3.443000000    -0.828000000    -5.405000000
H    -4.133000000    -0.295000000    -6.053000000
C    -3.921000000    -1.579000000    -4.313000000
O    -5.250000000    -1.442000000    -3.903000000
C    -5.828000000    -2.201000000    -2.879000000
C    -5.971000000    -1.674000000    -1.584000000
H    -5.721000000    -0.633000000    -1.398000000
C    -6.127000000    -3.546000000    -3.108000000
H    -6.037000000    -3.981000000    -4.100000000
C    -6.604000000    -4.362000000    -2.079000000
H    -6.944000000    -5.379000000    -2.262000000
C    -6.759000000    -3.836000000    -0.784000000
H    -7.216000000    -4.413000000     0.015000000
C    -6.466000000    -2.478000000    -0.577000000
O    -6.801000000    -1.854000000     0.602000000
C    -5.794000000    -1.237000000     1.360000000
C    -5.980000000    -0.080000000     2.135000000
H    -6.906000000     0.481000000     2.050000000
C    -4.970000000     0.344000000     3.037000000
O    -5.069000000     1.505000000     3.767000000
C    -4.058000000     1.951000000     4.616000000
C    -3.898000000     1.292000000     5.855000000
H    -4.533000000     0.440000000     6.082000000
C    -2.884000000     1.692000000     6.733000000
H    -2.692000000     1.260000000     7.711000000
C    -1.989000000     2.800000000     6.481000000
H    -1.138000000     3.082000000     7.096000000
C    -2.278000000     3.511000000     5.326000000
C    -3.228000000     2.999000000     4.370000000
H    -3.391000000     3.529000000     3.435000000
C    -2.605000000     0.412000000    -0.290000000
H    -3.624000000     0.105000000    -0.513000000
C    -1.567000000    -0.468000000    -0.393000000
H    -1.666000000    -1.515000000    -0.669000000
C    -0.269000000     0.012000000    -0.105000000
H     0.657000000    -0.660000000    -0.095000000
C    -0.014000000     1.323000000     0.231000000
H     0.984000000     1.715000000     0.408000000
C    -1.110000000     2.251000000     0.351000000
H    -0.979000000     3.266000000     0.718000000
C    -2.401000000     1.753000000     0.101000000
C    -3.596000000     2.719000000     0.197000000
O    -3.474000000     3.848000000     0.694000000
O    -4.688000000     2.378000000    -0.196000000
O     0.352000000     8.299000000    -1.084000000
H    -0.419000000     7.837000000    -0.753000000
H     0.877000000     7.619000000    -1.504000000
O    -4.390000000     5.704000000    -4.076000000
H    -4.669000000     5.147000000    -3.349000000
H    -3.960000000     5.104000000    -4.686000000
O    -8.328000000     6.601000000     1.173000000
H    -8.790000000     6.850000000     1.974000000
H    -7.486000000     7.053000000     1.232000000
O    -6.709000000     7.041000000     3.776000000
H    -6.035000000     6.465000000     3.416000000
H    -7.131000000     6.519000000     4.459000000
O    -1.816000000     6.252000000    -2.449000000
H    -1.082000000     5.898000000    -2.951000000
H    -2.582000000     5.786000000    -2.785000000
O    -4.921000000     5.984000000     1.928000000
H    -4.452000000     5.159000000     1.798000000
H    -4.663000000     6.526000000     1.183000000
O    -2.072000000     6.060000000     0.355000000
H    -2.111000000     6.167000000    -0.595000000
H    -2.612000000     5.290000000     0.532000000
O    -7.214000000     4.693000000     5.412000000
H    -7.604000000     4.505000000     6.266000000
H    -7.153000000     3.840000000     4.983000000
O    -8.358000000     5.011000000    -1.046000000
H    -8.361000000     5.910000000    -0.719000000
H    -8.105000000     4.481000000    -0.290000000
O    -3.819000000     3.260000000    -5.503000000
H    -4.530000000     2.682000000    -5.779000000
H    -3.474000000     2.853000000    -4.709000000
O    -9.419000000     3.277000000    -2.865000000
H    -8.881000000     3.842000000    -2.310000000
H    -9.795000000     2.636000000    -2.262000000
O    -6.647000000     3.720000000     1.017000000
H    -5.947000000     3.079000000     0.891000000
H    -6.224000000     4.451000000     1.467000000
O    -8.813000000     2.616000000     2.059000000
H    -8.362000000     2.475000000     2.892000000
H    -8.156000000     3.026000000     1.497000000
O    -4.052000000     7.875000000     0.114000000
H    -4.031000000     8.176000000    -0.794000000
H    -3.184000000     7.501000000     0.263000000
O    -5.358000000     4.386000000    -2.033000000
H    -6.267000000     4.290000000    -1.748000000
H    -4.851000000     3.895000000    -1.386000000
O    -1.662000000     8.511000000     2.283000000
H    -2.318000000     8.103000000     2.849000000
H    -1.511000000     7.867000000     1.591000000
O    -7.510000000     2.075000000     4.705000000
H    -6.663000000     1.755000000     4.395000000
H    -7.937000000     1.302000000     5.074000000
O    -3.768000000     1.922000000    -3.004000000
H    -4.480000000     2.477000000    -2.688000000
H    -3.388000000     1.546000000    -2.210000000
O    -2.987000000     8.913000000    -2.285000000
H    -2.595000000     8.083000000    -2.557000000
H    -2.475000000     9.580000000    -2.742000000
