215
-1429.21220
C    -0.077000000    -2.593000000     4.196000000
H    -1.031000000    -3.105000000     4.094000000
C     0.035000000    -1.215000000     4.070000000
C     1.242000000    -0.614000000     4.094000000
H     1.247000000     0.473000000     4.116000000
C    -1.237000000    -0.398000000     3.702000000
O    -2.435000000    -1.080000000     3.959000000
H    -1.214000000    -0.267000000     2.610000000
O    -1.262000000     0.846000000     4.386000000
C    -1.580000000     1.989000000     3.754000000
C    -0.485000000     2.802000000     3.405000000
H     0.500000000     2.543000000     3.785000000
C    -0.666000000     3.855000000     2.488000000
O     0.390000000     4.590000000     2.146000000
C    -1.940000000     4.055000000     1.996000000
C    -2.140000000     5.097000000     0.866000000
H    -3.190000000     5.394000000     0.810000000
C    -1.623000000     4.597000000    -0.450000000
C    -2.569000000     4.013000000    -1.328000000
H    -3.582000000     3.870000000    -0.960000000
H    -1.529000000     5.979000000     1.072000000
C    -2.996000000     3.219000000     2.333000000
H    -3.916000000     3.550000000     1.857000000
C    -2.851000000     2.212000000     3.276000000
C    -4.034000000     1.317000000     3.672000000
H    -4.947000000     1.907000000     3.565000000
H    -4.041000000     0.958000000     4.704000000
C    -4.131000000     0.153000000     2.709000000
C    -4.864000000     0.240000000     1.495000000
H    -5.350000000     1.186000000     1.272000000
C    -3.388000000    -1.051000000     2.988000000
C    -3.462000000    -2.154000000     2.133000000
H    -2.937000000    -3.061000000     2.421000000
C    -4.246000000    -2.106000000     0.994000000
O    -4.190000000    -3.177000000     0.224000000
C    -3.201000000    -3.101000000    -0.818000000
C    -2.426000000    -4.428000000    -0.918000000
C    -1.665000000    -4.624000000    -2.086000000
H    -1.621000000    -3.889000000    -2.885000000
C    -2.343000000    -5.367000000     0.134000000
H    -2.911000000    -5.185000000     1.042000000
O    -3.749000000    -2.786000000    -2.118000000
H    -2.477000000    -2.318000000    -0.546000000
C    -4.940000000    -0.911000000     0.663000000
C    -5.594000000    -0.777000000    -0.737000000
H    -6.271000000     0.069000000    -0.604000000
H    -6.182000000    -1.678000000    -0.926000000
C    -4.519000000    -0.437000000    -1.706000000
C    -4.348000000     0.921000000    -2.047000000
H    -4.877000000     1.753000000    -1.590000000
C    -3.737000000    -1.397000000    -2.416000000
C    -2.820000000    -1.049000000    -3.354000000
H    -2.128000000    -1.795000000    -3.737000000
C    -2.602000000     0.276000000    -3.665000000
O    -1.529000000     0.574000000    -4.509000000
C    -0.450000000     1.429000000    -3.972000000
C     0.867000000     0.928000000    -4.578000000
C     1.053000000    -0.421000000    -4.755000000
H     0.314000000    -1.116000000    -4.366000000
C     1.978000000     1.800000000    -4.691000000
H     1.891000000     2.857000000    -4.455000000
O    -0.594000000     2.808000000    -4.147000000
H    -0.307000000     1.227000000    -2.901000000
C    -3.411000000     1.301000000    -3.039000000
C    -3.281000000     2.755000000    -3.481000000
H    -4.203000000     3.334000000    -3.562000000
H    -2.874000000     2.848000000    -4.490000000
C    -2.261000000     3.411000000    -2.574000000
C    -0.981000000     3.480000000    -2.997000000
C    -0.003000000     4.252000000    -2.295000000
H     1.026000000     4.403000000    -2.609000000
C    -0.356000000     4.763000000    -0.984000000
O     0.683000000     5.151000000    -0.194000000
C     0.990000000     4.280000000     0.875000000
H     0.586000000     3.310000000     0.549000000
C     2.528000000     4.017000000     1.119000000
C     3.151000000     3.963000000     2.361000000
H     2.496000000     3.857000000     3.222000000
C     3.334000000     3.954000000    -0.056000000
H     2.856000000     3.938000000    -1.032000000
C     4.742000000     3.843000000     0.108000000
O     5.473000000     3.763000000    -0.953000000
C     5.366000000     3.861000000     1.335000000
H     6.434000000     3.669000000     1.394000000
C     4.545000000     3.793000000     2.446000000
O     5.119000000     3.432000000     3.644000000
C     4.537000000     2.598000000     4.526000000
C     4.294000000     1.308000000     4.116000000
H     4.301000000     0.988000000     3.077000000
C     4.392000000     2.936000000     5.858000000
H     4.651000000     3.914000000     6.253000000
C     4.014000000     1.992000000     6.788000000
H     3.731000000     2.166000000     7.823000000
C     3.863000000     0.691000000     6.370000000
H     3.643000000    -0.058000000     7.127000000
C     3.816000000     0.330000000     5.019000000
O     3.658000000    -0.943000000     4.723000000
C     2.402000000    -1.380000000     4.434000000
C     2.236000000    -2.743000000     4.463000000
H     3.159000000    -3.317000000     4.499000000
C     1.001000000    -3.390000000     4.403000000
O     0.736000000    -4.756000000     4.699000000
C    -0.116000000    -5.683000000     4.259000000
C    -0.210000000    -5.983000000     2.915000000
H     0.306000000    -5.348000000     2.198000000
C    -0.832000000    -6.413000000     5.191000000
H    -0.841000000    -6.225000000     6.262000000
C    -1.669000000    -7.427000000     4.730000000
H    -2.234000000    -8.081000000     5.389000000
C    -1.815000000    -7.749000000     3.400000000
H    -2.454000000    -8.567000000     3.076000000
C    -1.131000000    -6.967000000     2.468000000
O    -1.337000000    -7.282000000     1.168000000
C    -1.447000000    -6.443000000     0.054000000
C    -0.616000000    -6.522000000    -1.073000000
H     0.122000000    -7.321000000    -1.060000000
C    -0.775000000    -5.683000000    -2.251000000
O    -0.111000000    -5.936000000    -3.411000000
C     0.150000000    -4.986000000    -4.421000000
C     1.152000000    -4.077000000    -4.341000000
H     1.778000000    -4.011000000    -3.455000000
C    -0.633000000    -5.092000000    -5.530000000
H    -1.427000000    -5.834000000    -5.557000000
C    -0.503000000    -4.173000000    -6.546000000
H    -1.209000000    -4.184000000    -7.372000000
C     0.455000000    -3.216000000    -6.503000000
H     0.440000000    -2.439000000    -7.262000000
C     1.324000000    -3.131000000    -5.391000000
O     2.396000000    -2.267000000    -5.412000000
C     2.255000000    -0.916000000    -5.221000000
C     3.297000000    -0.052000000    -5.473000000
H     4.234000000    -0.429000000    -5.873000000
C     3.240000000     1.347000000    -5.139000000
O     4.412000000     2.200000000    -5.334000000
C     4.667000000     3.291000000    -4.523000000
C     4.892000000     4.599000000    -4.958000000
H     4.851000000     4.845000000    -6.016000000
C     5.218000000     5.623000000    -4.103000000
H     5.292000000     6.627000000    -4.514000000
C     5.450000000     5.369000000    -2.729000000
H     5.741000000     6.186000000    -2.074000000
C     5.256000000     4.101000000    -2.280000000
C     4.822000000     3.093000000    -3.140000000
H     4.856000000     2.052000000    -2.830000000
C     0.273000000    -1.474000000    -0.499000000
H    -0.054000000    -2.511000000    -0.487000000
C    -0.568000000    -0.480000000    -0.051000000
H    -1.563000000    -0.611000000     0.367000000
C    -0.117000000     0.843000000    -0.175000000
H    -0.724000000     1.721000000     0.137000000
C     1.114000000     1.124000000    -0.697000000
H     1.396000000     2.172000000    -0.758000000
C     1.926000000     0.080000000    -1.154000000
H     2.919000000     0.315000000    -1.526000000
C     1.524000000    -1.255000000    -1.134000000
C     2.438000000    -2.354000000    -1.531000000
O     3.501000000    -1.918000000    -2.000000000
O     2.301000000    -3.514000000    -1.178000000
O     5.647000000    -5.062000000     3.948000000
H     5.945000000    -4.830000000     3.069000000
H     4.693000000    -5.109000000     3.873000000
O     3.208000000    -6.039000000    -1.500000000
H     3.102000000    -6.162000000    -2.443000000
H     2.698000000    -5.255000000    -1.301000000
O     3.656000000    -6.626000000    -4.373000000
H     3.086000000    -6.482000000    -5.128000000
H     4.109000000    -7.446000000    -4.568000000
O     6.485000000    -1.713000000    -4.147000000
H     6.963000000    -2.161000000    -4.845000000
H     5.811000000    -2.338000000    -3.880000000
O     8.629000000    -5.957000000    -1.689000000
H     7.737000000    -5.625000000    -1.795000000
H     8.534000000    -6.909000000    -1.707000000
O     6.904000000     1.318000000    -0.746000000
H     6.192000000     1.958000000    -0.754000000
H     6.549000000     0.558000000    -1.206000000
O     6.627000000    -4.034000000     0.224000000
H     5.893000000    -3.422000000     0.275000000
H     6.515000000    -4.473000000    -0.620000000
O     8.400000000    -0.829000000     0.328000000
H     8.459000000    -1.007000000     1.266000000
H     7.917000000    -0.005000000     0.270000000
O     5.672000000    -1.069000000     1.176000000
H     4.889000000    -1.571000000     1.404000000
H     5.823000000    -1.269000000     0.252000000
O     5.692000000    -5.032000000    -1.943000000
H     5.364000000    -4.510000000    -2.675000000
H     4.914000000    -5.462000000    -1.588000000
O     2.846000000    -2.090000000    -8.603000000
H     2.607000000    -2.421000000    -7.737000000
H     2.315000000    -1.301000000    -8.713000000
O     3.445000000    -9.145000000    -2.090000000
H     3.821000000    -8.416000000    -2.585000000
H     3.547000000    -9.902000000    -2.666000000
O     3.126000000    -5.475000000     2.970000000
H     3.265000000    -6.042000000     2.211000000
H     2.517000000    -5.963000000     3.524000000
O     3.784000000    -3.400000000     1.063000000
H     3.099000000    -3.501000000     0.402000000
H     3.542000000    -4.017000000     1.754000000
O     7.486000000    -1.644000000     3.053000000
H     6.676000000    -1.513000000     2.559000000
H     7.642000000    -0.805000000     3.486000000
O     7.742000000     1.435000000    -3.876000000
H     7.146000000     0.749000000    -3.575000000
H     8.189000000     1.728000000    -3.083000000
O     4.517000000    -3.553000000    -3.974000000
H     3.927000000    -3.238000000    -3.289000000
H     3.992000000    -4.181000000    -4.471000000
O     5.941000000    -0.900000000    -1.781000000
H     6.335000000    -1.301000000    -2.556000000
H     5.050000000    -1.250000000    -1.757000000
O     3.332000000    -7.388000000     0.975000000
H     3.185000000    -6.975000000     0.124000000
H     2.843000000    -8.210000000     0.929000000
