215
-1456.79744
C    -0.264000000    -2.252000000     5.073000000
H    -1.177000000    -2.812000000     4.887000000
C    -0.125000000    -0.879000000     4.835000000
C     1.029000000    -0.178000000     5.187000000
H     1.111000000     0.890000000     5.004000000
C    -1.097000000    -0.095000000     4.057000000
O    -2.377000000    -0.688000000     4.186000000
H    -0.750000000    -0.201000000     3.019000000
O    -1.073000000     1.380000000     4.443000000
C    -1.435000000     2.372000000     3.592000000
C    -0.354000000     3.216000000     3.330000000
H     0.603000000     3.027000000     3.810000000
C    -0.435000000     4.123000000     2.287000000
O     0.710000000     4.716000000     1.856000000
C    -1.698000000     4.347000000     1.656000000
C    -1.793000000     5.358000000     0.555000000
H    -2.822000000     5.724000000     0.524000000
C    -1.507000000     4.691000000    -0.795000000
C    -2.546000000     4.040000000    -1.544000000
H    -3.552000000     4.079000000    -1.134000000
H    -1.174000000     6.249000000     0.679000000
C    -2.804000000     3.636000000     2.174000000
H    -3.787000000     4.005000000     1.891000000
C    -2.707000000     2.597000000     3.043000000
C    -3.956000000     1.736000000     3.429000000
H    -4.846000000     2.361000000     3.321000000
H    -3.831000000     1.576000000     4.502000000
C    -4.041000000     0.403000000     2.759000000
C    -4.635000000     0.342000000     1.486000000
H    -5.269000000     1.164000000     1.164000000
C    -3.215000000    -0.657000000     3.100000000
C    -3.232000000    -1.807000000     2.346000000
H    -2.616000000    -2.634000000     2.690000000
C    -3.995000000    -1.878000000     1.149000000
O    -3.822000000    -3.040000000     0.339000000
C    -2.918000000    -2.736000000    -0.753000000
C    -1.808000000    -3.795000000    -0.712000000
C    -1.023000000    -3.922000000    -1.834000000
H    -1.175000000    -3.343000000    -2.741000000
C    -1.501000000    -4.504000000     0.463000000
H    -2.060000000    -4.313000000     1.376000000
O    -3.708000000    -2.639000000    -2.037000000
H    -2.419000000    -1.773000000    -0.565000000
C    -4.707000000    -0.786000000     0.689000000
C    -5.532000000    -0.828000000    -0.638000000
H    -6.378000000    -0.137000000    -0.649000000
H    -5.918000000    -1.847000000    -0.707000000
C    -4.660000000    -0.385000000    -1.778000000
C    -4.647000000     0.979000000    -2.119000000
H    -5.304000000     1.650000000    -1.572000000
C    -3.910000000    -1.322000000    -2.442000000
C    -3.076000000    -0.981000000    -3.424000000
H    -2.374000000    -1.665000000    -3.894000000
C    -3.055000000     0.329000000    -3.832000000
O    -2.116000000     0.664000000    -4.740000000
C    -0.810000000     1.112000000    -4.242000000
C     0.314000000     0.534000000    -5.039000000
C     0.167000000    -0.668000000    -5.724000000
H    -0.753000000    -1.246000000    -5.714000000
C     1.594000000     1.132000000    -5.042000000
H     1.705000000     2.084000000    -4.529000000
O    -0.778000000     2.536000000    -4.299000000
H    -0.693000000     0.867000000    -3.177000000
C    -3.758000000     1.341000000    -3.164000000
C    -3.530000000     2.847000000    -3.450000000
H    -4.504000000     3.315000000    -3.297000000
H    -3.380000000     2.944000000    -4.527000000
C    -2.297000000     3.388000000    -2.726000000
C    -1.009000000     3.283000000    -3.186000000
C     0.041000000     3.850000000    -2.476000000
H     1.030000000     3.595000000    -2.848000000
C    -0.203000000     4.525000000    -1.251000000
O     0.867000000     4.967000000    -0.534000000
C     1.150000000     4.083000000     0.642000000
H     0.658000000     3.112000000     0.484000000
C     2.622000000     3.698000000     0.661000000
C     3.322000000     3.752000000     1.872000000
H     2.997000000     4.339000000     2.728000000
C     3.193000000     2.933000000    -0.396000000
H     2.618000000     2.714000000    -1.292000000
C     4.466000000     2.319000000    -0.233000000
O     5.042000000     1.652000000    -1.331000000
C     5.110000000     2.410000000     1.022000000
H     6.100000000     1.964000000     1.060000000
C     4.518000000     3.071000000     2.060000000
O     5.183000000     3.069000000     3.294000000
C     4.614000000     2.714000000     4.503000000
C     4.222000000     1.438000000     4.645000000
H     4.475000000     0.697000000     3.892000000
C     4.158000000     3.699000000     5.407000000
H     4.397000000     4.735000000     5.182000000
C     3.547000000     3.310000000     6.607000000
H     3.331000000     4.024000000     7.398000000
C     3.224000000     1.956000000     6.777000000
H     2.872000000     1.540000000     7.718000000
C     3.503000000     1.050000000     5.793000000
O     3.282000000    -0.300000000     6.023000000
C     2.085000000    -0.933000000     5.701000000
C     1.969000000    -2.269000000     5.960000000
H     2.830000000    -2.849000000     6.279000000
C     0.789000000    -2.970000000     5.665000000
O     0.633000000    -4.275000000     5.891000000
C    -0.042000000    -5.081000000     5.020000000
C     0.166000000    -5.124000000     3.629000000
H     0.930000000    -4.541000000     3.122000000
C    -0.902000000    -5.997000000     5.607000000
H    -1.063000000    -6.060000000     6.680000000
C    -1.617000000    -6.872000000     4.803000000
H    -2.159000000    -7.688000000     5.273000000
C    -1.359000000    -6.923000000     3.399000000
H    -1.886000000    -7.694000000     2.842000000
C    -0.439000000    -6.053000000     2.835000000
O    -0.045000000    -6.133000000     1.503000000
C    -0.352000000    -5.339000000     0.496000000
C     0.551000000    -5.331000000    -0.572000000
H     1.457000000    -5.931000000    -0.592000000
C     0.175000000    -4.696000000    -1.750000000
O     0.999000000    -4.864000000    -2.819000000
C     0.625000000    -4.732000000    -4.165000000
C     1.083000000    -3.563000000    -4.863000000
H     1.714000000    -2.791000000    -4.428000000
C    -0.176000000    -5.659000000    -4.849000000
H    -0.646000000    -6.447000000    -4.265000000
C    -0.509000000    -5.567000000    -6.225000000
H    -1.193000000    -6.199000000    -6.785000000
C    -0.013000000    -4.447000000    -6.873000000
H    -0.257000000    -4.344000000    -7.928000000
C     0.738000000    -3.447000000    -6.193000000
O     1.088000000    -2.415000000    -7.092000000
C     1.164000000    -1.115000000    -6.605000000
C     2.386000000    -0.443000000    -6.696000000
H     3.248000000    -0.824000000    -7.237000000
C     2.651000000     0.629000000    -5.825000000
O     3.868000000     1.259000000    -5.922000000
C     4.464000000     1.974000000    -4.898000000
C     4.900000000     3.273000000    -5.179000000
H     4.918000000     3.697000000    -6.180000000
C     5.417000000     4.039000000    -4.104000000
H     5.819000000     5.011000000    -4.378000000
C     5.494000000     3.500000000    -2.822000000
H     5.854000000     4.171000000    -2.046000000
C     5.089000000     2.209000000    -2.588000000
C     4.616000000     1.436000000    -3.647000000
H     4.144000000     0.487000000    -3.405000000
C     1.461000000    -2.198000000     0.250000000
H     1.554000000    -2.888000000     1.085000000
C     0.377000000    -1.306000000     0.347000000
H    -0.381000000    -1.606000000     1.066000000
C     0.367000000    -0.200000000    -0.533000000
H    -0.323000000     0.645000000    -0.364000000
C     1.335000000    -0.154000000    -1.587000000
H     1.322000000     0.657000000    -2.311000000
C     2.294000000    -1.200000000    -1.722000000
H     3.027000000    -1.034000000    -2.508000000
C     2.493000000    -2.171000000    -0.758000000
C     3.705000000    -3.090000000    -0.727000000
O     4.484000000    -3.091000000    -1.721000000
O     3.908000000    -3.880000000     0.165000000
O     7.561000000     1.129000000    -2.528000000
H     7.238000000     0.231000000    -2.447000000
H     8.394000000     1.127000000    -2.057000000
O     1.160000000    -8.724000000     0.845000000
H     1.026000000    -7.823000000     1.141000000
H     1.267000000    -9.228000000     1.651000000
O     4.698000000    -6.379000000     0.710000000
H     4.320000000    -5.577000000     0.350000000
H     5.453000000    -6.081000000     1.218000000
O     6.101000000    -0.651000000     0.572000000
H     5.805000000     0.052000000    -0.007000000
H     5.396000000    -0.745000000     1.213000000
O     4.740000000    -2.160000000    -4.244000000
H     4.663000000    -2.977000000    -3.752000000
H     5.512000000    -1.730000000    -3.875000000
O     4.060000000    -4.401000000     3.193000000
H     3.818000000    -4.863000000     2.390000000
H     3.776000000    -4.983000000     3.898000000
O     5.082000000    -5.581000000    -2.489000000
H     5.859000000    -5.534000000    -1.932000000
H     4.584000000    -4.793000000    -2.272000000
O     5.731000000    -2.426000000     5.041000000
H     5.826000000    -3.378000000     5.064000000
H     5.105000000    -2.264000000     4.335000000
O     8.750000000     0.124000000     1.275000000
H     9.398000000    -0.547000000     1.060000000
H     7.906000000    -0.314000000     1.166000000
O     7.349000000    -4.504000000    -4.981000000
H     6.545000000    -4.836000000    -5.381000000
H     7.283000000    -4.761000000    -4.062000000
O     9.340000000    -3.422000000     1.678000000
H     8.567000000    -3.986000000     1.660000000
H     9.576000000    -3.368000000     2.605000000
O     7.808000000    -4.938000000    -1.628000000
H     8.559000000    -4.345000000    -1.657000000
H     7.231000000    -4.561000000    -0.965000000
O     5.158000000    -2.488000000    -6.978000000
H     4.966000000    -3.425000000    -7.005000000
H     4.785000000    -2.191000000    -6.148000000
O     4.100000000    -8.579000000     2.162000000
H     3.233000000    -8.948000000     2.329000000
H     3.933000000    -7.810000000     1.618000000
O     6.355000000    -3.531000000     0.528000000
H     6.421000000    -2.578000000     0.584000000
H     5.422000000    -3.699000000     0.390000000
O     3.276000000    -6.539000000    -4.189000000
H     2.465000000    -6.329000000    -3.726000000
H     3.970000000    -6.225000000    -3.610000000
O     6.928000000    -8.269000000     0.537000000
H     6.017000000    -8.117000000     0.787000000
H     6.879000000    -8.927000000    -0.157000000
O     6.709000000    -1.259000000    -2.212000000
H     7.323000000    -1.940000000    -1.939000000
H     5.866000000    -1.539000000    -1.857000000
O     4.133000000    -1.638000000     2.593000000
H     4.460000000    -2.504000000     2.350000000
H     3.189000000    -1.686000000     2.441000000
