215
-1462.49867
C    -0.780000000    -2.807000000     4.527000000
H    -1.643000000    -3.247000000     4.033000000
C    -0.541000000    -1.421000000     4.484000000
C     0.579000000    -0.915000000     5.044000000
H     0.760000000     0.153000000     4.951000000
C    -1.554000000    -0.547000000     3.831000000
O    -2.821000000    -1.195000000     3.803000000
H    -1.241000000    -0.275000000     2.812000000
O    -1.797000000     0.760000000     4.497000000
C    -1.912000000     1.829000000     3.667000000
C    -0.785000000     2.566000000     3.380000000
H     0.155000000     2.261000000     3.833000000
C    -0.831000000     3.592000000     2.464000000
O     0.347000000     4.267000000     2.124000000
C    -2.058000000     3.940000000     1.836000000
C    -2.027000000     5.027000000     0.861000000
H    -3.012000000     5.479000000     0.729000000
C    -1.656000000     4.613000000    -0.520000000
C    -2.535000000     4.213000000    -1.423000000
H    -3.549000000     4.070000000    -1.057000000
H    -1.367000000     5.834000000     1.188000000
C    -3.194000000     3.171000000     2.082000000
H    -4.134000000     3.356000000     1.569000000
C    -3.107000000     2.089000000     3.010000000
C    -4.237000000     1.212000000     3.255000000
H    -5.131000000     1.839000000     3.235000000
H    -4.239000000     0.767000000     4.252000000
C    -4.316000000    -0.007000000     2.336000000
C    -4.774000000     0.036000000     1.009000000
H    -4.983000000     1.006000000     0.564000000
C    -3.642000000    -1.207000000     2.746000000
C    -3.607000000    -2.328000000     1.955000000
H    -3.114000000    -3.249000000     2.259000000
C    -4.242000000    -2.354000000     0.737000000
O    -3.849000000    -3.400000000    -0.089000000
C    -2.709000000    -3.048000000    -0.886000000
C    -1.654000000    -4.129000000    -0.922000000
C    -0.526000000    -3.965000000    -1.708000000
H    -0.450000000    -3.142000000    -2.415000000
C    -1.672000000    -5.196000000     0.016000000
H    -2.411000000    -5.287000000     0.807000000
O    -3.002000000    -2.698000000    -2.223000000
H    -2.170000000    -2.220000000    -0.404000000
C    -4.813000000    -1.133000000     0.238000000
C    -5.234000000    -1.121000000    -1.180000000
H    -6.135000000    -0.512000000    -1.280000000
H    -5.592000000    -2.106000000    -1.488000000
C    -4.249000000    -0.567000000    -2.185000000
C    -4.278000000     0.811000000    -2.455000000
H    -5.031000000     1.444000000    -1.993000000
C    -3.184000000    -1.373000000    -2.657000000
C    -2.336000000    -0.806000000    -3.523000000
H    -1.543000000    -1.396000000    -3.975000000
C    -2.385000000     0.560000000    -3.831000000
O    -1.510000000     1.019000000    -4.784000000
C    -0.295000000     1.686000000    -4.355000000
C     0.938000000     1.408000000    -5.176000000
C     1.181000000     0.133000000    -5.607000000
H     0.392000000    -0.608000000    -5.513000000
C     1.939000000     2.364000000    -5.274000000
H     1.731000000     3.378000000    -4.940000000
O    -0.517000000     3.099000000    -4.260000000
H    -0.092000000     1.321000000    -3.337000000
C    -3.295000000     1.457000000    -3.202000000
C    -3.323000000     2.965000000    -3.506000000
H    -4.292000000     3.406000000    -3.262000000
H    -3.178000000     3.224000000    -4.556000000
C    -2.229000000     3.675000000    -2.692000000
C    -0.944000000     3.671000000    -3.112000000
C     0.049000000     4.137000000    -2.229000000
H     1.089000000     4.133000000    -2.546000000
C    -0.304000000     4.520000000    -0.951000000
O     0.748000000     4.784000000    -0.076000000
C     1.049000000     3.857000000     0.965000000
H     0.509000000     2.921000000     0.759000000
C     2.571000000     3.570000000     1.108000000
C     3.000000000     2.819000000     2.264000000
H     2.233000000     2.532000000     2.978000000
C     3.522000000     3.934000000     0.109000000
H     3.196000000     4.553000000    -0.723000000
C     4.853000000     3.524000000     0.194000000
O     5.695000000     3.644000000    -0.853000000
C     5.200000000     2.741000000     1.284000000
H     6.273000000     2.587000000     1.357000000
C     4.296000000     2.351000000     2.278000000
O     4.770000000     1.673000000     3.358000000
C     4.037000000     1.472000000     4.522000000
C     3.611000000     0.194000000     4.816000000
H     3.676000000    -0.594000000     4.070000000
C     4.028000000     2.433000000     5.507000000
H     4.503000000     3.393000000     5.327000000
C     3.443000000     2.252000000     6.738000000
H     3.427000000     2.998000000     7.528000000
C     2.936000000     0.985000000     7.068000000
H     2.495000000     0.851000000     8.053000000
C     3.067000000    -0.021000000     6.108000000
O     2.609000000    -1.262000000     6.405000000
C     1.455000000    -1.759000000     5.765000000
C     1.251000000    -3.127000000     5.796000000
H     1.862000000    -3.913000000     6.234000000
C     0.136000000    -3.641000000     5.196000000
O    -0.261000000    -5.016000000     5.384000000
C    -0.898000000    -5.727000000     4.370000000
C    -0.357000000    -6.044000000     3.132000000
H     0.657000000    -5.718000000     2.914000000
C    -2.099000000    -6.322000000     4.726000000
H    -2.522000000    -6.150000000     5.712000000
C    -2.819000000    -7.066000000     3.847000000
H    -3.823000000    -7.417000000     4.075000000
C    -2.256000000    -7.401000000     2.613000000
H    -2.750000000    -8.109000000     1.952000000
C    -1.023000000    -6.829000000     2.215000000
O    -0.534000000    -7.110000000     0.986000000
C    -0.585000000    -6.066000000     0.094000000
C     0.502000000    -5.874000000    -0.787000000
H     1.292000000    -6.618000000    -0.742000000
C     0.532000000    -4.858000000    -1.703000000
O     1.598000000    -4.608000000    -2.588000000
C     1.495000000    -4.179000000    -3.846000000
C     2.268000000    -3.145000000    -4.376000000
H     3.057000000    -2.641000000    -3.823000000
C     0.483000000    -4.760000000    -4.649000000
H    -0.054000000    -5.639000000    -4.304000000
C     0.174000000    -4.224000000    -5.916000000
H    -0.664000000    -4.682000000    -6.435000000
C     0.980000000    -3.218000000    -6.457000000
H     0.744000000    -2.858000000    -7.455000000
C     2.047000000    -2.751000000    -5.736000000
O     2.703000000    -1.667000000    -6.279000000
C     2.421000000    -0.298000000    -6.032000000
C     3.492000000     0.585000000    -5.941000000
H     4.529000000     0.280000000    -6.056000000
C     3.247000000     1.907000000    -5.556000000
O     4.382000000     2.754000000    -5.463000000
C     4.575000000     3.618000000    -4.390000000
C     4.826000000     4.928000000    -4.681000000
H     4.873000000     5.281000000    -5.708000000
C     5.083000000     5.879000000    -3.683000000
H     5.343000000     6.838000000    -4.125000000
C     5.296000000     5.477000000    -2.371000000
H     5.747000000     6.157000000    -1.652000000
C     5.218000000     4.081000000    -2.084000000
C     4.806000000     3.164000000    -3.055000000
H     4.734000000     2.097000000    -2.858000000
C     1.416000000    -1.739000000    -0.250000000
H     1.782000000    -2.733000000    -0.007000000
C     0.208000000    -1.258000000     0.296000000
H    -0.350000000    -1.888000000     0.984000000
C    -0.367000000    -0.068000000    -0.101000000
H    -1.394000000     0.289000000     0.282000000
C     0.369000000     0.791000000    -0.916000000
H    -0.024000000     1.754000000    -1.232000000
C     1.659000000     0.417000000    -1.374000000
H     2.287000000     1.067000000    -1.977000000
C     2.189000000    -0.829000000    -1.008000000
C     3.560000000    -1.305000000    -1.389000000
O     4.114000000    -0.684000000    -2.244000000
O     4.178000000    -2.117000000    -0.763000000
O     6.906000000     2.515000000    -6.186000000
H     6.864000000     1.559000000    -6.152000000
H     6.045000000     2.804000000    -5.883000000
O     5.008000000    -3.995000000     0.702000000
H     4.957000000    -4.682000000     0.039000000
H     4.614000000    -3.229000000     0.285000000
O     4.310000000    -5.519000000    -3.492000000
H     3.464000000    -5.101000000    -3.653000000
H     4.363000000    -5.590000000    -2.539000000
O     6.859000000    -0.175000000    -5.997000000
H     6.681000000    -0.571000000    -5.144000000
H     7.666000000    -0.595000000    -6.293000000
O     8.920000000    -1.717000000    -1.288000000
H     9.332000000    -2.246000000    -1.970000000
H     9.493000000    -0.955000000    -1.197000000
O     7.667000000    -3.038000000     1.221000000
H     6.937000000    -3.652000000     1.137000000
H     8.281000000    -3.300000000     0.535000000
O     7.034000000    -4.821000000    -3.958000000
H     7.080000000    -4.198000000    -3.233000000
H     6.097000000    -4.955000000    -4.100000000
O     7.387000000    -3.358000000     3.848000000
H     7.351000000    -3.170000000     2.910000000
H     8.133000000    -3.950000000     3.945000000
O     8.360000000     0.866000000     1.848000000
H     7.559000000     0.361000000     1.709000000
H     8.417000000     1.439000000     1.083000000
O     6.445000000    -2.856000000    -2.189000000
H     5.718000000    -2.387000000    -1.780000000
H     7.229000000    -2.412000000    -1.868000000
O     6.453000000    -3.149000000    -6.800000000
H     7.276000000    -2.695000000    -6.980000000
H     5.941000000    -2.523000000    -6.288000000
O     4.187000000    -4.923000000     3.133000000
H     3.914000000    -4.068000000     3.467000000
H     4.405000000    -4.762000000     2.215000000
O     8.150000000     2.281000000    -0.727000000
H     7.744000000     3.146000000    -0.669000000
H     7.418000000     1.682000000    -0.876000000
O     6.082000000    -0.838000000     1.521000000
H     5.200000000    -1.030000000     1.204000000
H     6.602000000    -1.598000000     1.260000000
O     8.258000000     2.687000000    -3.505000000
H     8.233000000     2.183000000    -2.692000000
H     7.345000000     2.922000000    -3.669000000
O     5.224000000    -1.723000000    -4.526000000
H     5.356000000    -2.464000000    -3.935000000
H     4.789000000    -1.062000000    -3.988000000
O     6.328000000     0.536000000    -1.376000000
H     6.577000000    -0.279000000    -0.940000000
H     5.524000000     0.320000000    -1.848000000
O     4.825000000    -6.444000000    -0.879000000
H     5.631000000    -6.280000000    -0.389000000
H     4.492000000    -7.268000000    -0.524000000
O     7.403000000    -5.232000000    -0.478000000
H     8.205000000    -5.714000000    -0.679000000
H     7.018000000    -5.041000000    -1.334000000
