215
-1437.62705
C    -0.555000000    -2.821000000     4.580000000
H    -1.298000000    -3.333000000     3.974000000
C    -0.656000000    -1.470000000     4.759000000
C     0.232000000    -0.829000000     5.607000000
H     0.202000000     0.242000000     5.792000000
C    -1.800000000    -0.697000000     4.029000000
O    -3.005000000    -1.443000000     3.798000000
H    -1.422000000    -0.531000000     3.009000000
O    -2.037000000     0.603000000     4.714000000
C    -2.166000000     1.706000000     3.908000000
C    -1.065000000     2.494000000     3.700000000
H    -0.109000000     2.380000000     4.206000000
C    -1.133000000     3.534000000     2.780000000
O     0.024000000     4.212000000     2.557000000
C    -2.301000000     3.744000000     2.055000000
C    -2.337000000     4.844000000     0.980000000
H    -3.343000000     5.160000000     0.696000000
C    -1.708000000     4.511000000    -0.377000000
C    -2.531000000     3.810000000    -1.221000000
H    -3.592000000     3.654000000    -1.045000000
H    -1.967000000     5.803000000     1.347000000
C    -3.401000000     2.890000000     2.226000000
H    -4.159000000     2.865000000     1.448000000
C    -3.316000000     1.832000000     3.126000000
C    -4.455000000     0.871000000     3.227000000
H    -5.416000000     1.375000000     3.111000000
H    -4.578000000     0.350000000     4.179000000
C    -4.417000000    -0.254000000     2.290000000
C    -4.869000000    -0.143000000     0.947000000
H    -5.441000000     0.733000000     0.650000000
C    -3.680000000    -1.374000000     2.585000000
C    -3.449000000    -2.400000000     1.649000000
H    -2.795000000    -3.232000000     1.897000000
C    -4.007000000    -2.382000000     0.433000000
O    -3.463000000    -3.321000000    -0.432000000
C    -2.511000000    -2.917000000    -1.417000000
C    -1.404000000    -3.929000000    -1.592000000
C    -0.951000000    -4.311000000    -2.825000000
H    -1.433000000    -4.042000000    -3.761000000
C    -0.816000000    -4.444000000    -0.415000000
H    -1.121000000    -4.120000000     0.576000000
O    -3.132000000    -2.623000000    -2.691000000
H    -2.155000000    -2.009000000    -0.908000000
C    -4.700000000    -1.189000000     0.067000000
C    -5.191000000    -1.154000000    -1.373000000
H    -6.117000000    -0.575000000    -1.362000000
H    -5.465000000    -2.150000000    -1.726000000
C    -4.196000000    -0.493000000    -2.364000000
C    -4.252000000     0.842000000    -2.646000000
H    -5.055000000     1.389000000    -2.159000000
C    -3.331000000    -1.323000000    -3.049000000
C    -2.454000000    -0.709000000    -3.944000000
H    -1.800000000    -1.442000000    -4.408000000
C    -2.338000000     0.646000000    -4.086000000
O    -1.244000000     1.194000000    -4.821000000
C    -0.142000000     1.554000000    -4.027000000
C     1.226000000     1.078000000    -4.547000000
C     1.303000000    -0.082000000    -5.259000000
H     0.406000000    -0.631000000    -5.533000000
C     2.363000000     1.831000000    -4.209000000
H     2.296000000     2.743000000    -3.621000000
O    -0.184000000     3.050000000    -3.976000000
H    -0.284000000     1.151000000    -3.013000000
C    -3.193000000     1.450000000    -3.406000000
C    -3.022000000     3.000000000    -3.558000000
H    -3.965000000     3.541000000    -3.461000000
H    -2.687000000     3.230000000    -4.572000000
C    -2.115000000     3.496000000    -2.493000000
C    -0.775000000     3.659000000    -2.855000000
C     0.111000000     4.270000000    -1.896000000
H     1.193000000     4.276000000    -2.003000000
C    -0.374000000     4.727000000    -0.654000000
O     0.447000000     5.094000000     0.414000000
C     0.745000000     3.958000000     1.326000000
H     0.354000000     3.056000000     0.832000000
C     2.204000000     3.710000000     1.539000000
C     2.589000000     3.001000000     2.666000000
H     1.887000000     2.726000000     3.449000000
C     3.162000000     4.096000000     0.558000000
H     2.874000000     4.763000000    -0.250000000
C     4.458000000     3.677000000     0.756000000
O     5.400000000     3.947000000    -0.181000000
C     4.850000000     3.060000000     1.910000000
H     5.898000000     2.777000000     1.966000000
C     3.917000000     2.657000000     2.851000000
O     4.375000000     1.979000000     3.954000000
C     3.567000000     1.816000000     5.048000000
C     3.365000000     0.557000000     5.536000000
H     3.723000000    -0.259000000     4.913000000
C     3.181000000     2.988000000     5.720000000
H     3.477000000     3.989000000     5.417000000
C     2.500000000     2.812000000     6.969000000
H     2.143000000     3.655000000     7.555000000
C     2.114000000     1.539000000     7.341000000
H     1.569000000     1.478000000     8.279000000
C     2.617000000     0.377000000     6.703000000
O     2.216000000    -0.923000000     7.019000000
C     1.184000000    -1.494000000     6.350000000
C     1.222000000    -2.862000000     6.156000000
H     1.984000000    -3.482000000     6.621000000
C     0.350000000    -3.528000000     5.307000000
O     0.228000000    -4.916000000     5.338000000
C     0.048000000    -5.646000000     4.199000000
C     0.619000000    -5.277000000     3.011000000
H     1.237000000    -4.383000000     2.983000000
C    -0.760000000    -6.792000000     4.248000000
H    -1.242000000    -7.141000000     5.157000000
C    -0.927000000    -7.560000000     3.108000000
H    -1.558000000    -8.445000000     3.107000000
C    -0.341000000    -7.214000000     1.936000000
H    -0.611000000    -7.889000000     1.127000000
C     0.439000000    -6.085000000     1.868000000
O     1.050000000    -5.729000000     0.669000000
C     0.279000000    -5.325000000    -0.475000000
C     0.715000000    -5.725000000    -1.731000000
H     1.664000000    -6.253000000    -1.760000000
C     0.039000000    -5.327000000    -2.865000000
O     0.650000000    -5.564000000    -4.127000000
C     0.700000000    -4.684000000    -5.137000000
C     1.775000000    -3.861000000    -5.185000000
H     2.464000000    -3.771000000    -4.349000000
C    -0.160000000    -4.837000000    -6.231000000
H    -0.867000000    -5.663000000    -6.258000000
C     0.017000000    -3.938000000    -7.318000000
H    -0.657000000    -3.986000000    -8.169000000
C     0.996000000    -2.945000000    -7.231000000
H     1.035000000    -2.206000000    -8.027000000
C     1.882000000    -2.861000000    -6.181000000
O     2.868000000    -1.872000000    -6.029000000
C     2.611000000    -0.621000000    -5.530000000
C     3.719000000     0.151000000    -5.290000000
H     4.645000000    -0.325000000    -5.602000000
C     3.573000000     1.388000000    -4.658000000
O     4.683000000     2.166000000    -4.597000000
C     4.773000000     3.230000000    -3.719000000
C     4.543000000     4.537000000    -4.278000000
H     4.425000000     4.551000000    -5.358000000
C     4.618000000     5.653000000    -3.434000000
H     4.331000000     6.640000000    -3.789000000
C     4.945000000     5.431000000    -2.096000000
H     4.928000000     6.280000000    -1.418000000
C     5.136000000     4.126000000    -1.537000000
C     5.119000000     3.079000000    -2.361000000
H     5.510000000     2.145000000    -1.965000000
C     1.520000000    -1.535000000     0.850000000
H     1.434000000    -2.449000000     1.432000000
C     0.330000000    -0.870000000     0.573000000
H    -0.647000000    -1.289000000     0.800000000
C     0.405000000     0.321000000    -0.153000000
H    -0.463000000     0.903000000    -0.431000000
C     1.653000000     0.858000000    -0.493000000
H     1.693000000     1.745000000    -1.120000000
C     2.836000000     0.222000000    -0.039000000
H     3.800000000     0.621000000    -0.345000000
C     2.785000000    -0.980000000     0.606000000
C     4.060000000    -1.685000000     1.125000000
O     5.049000000    -1.677000000     0.402000000
O     4.061000000    -2.424000000     2.067000000
O     7.409000000     1.129000000    -4.100000000
H     7.981000000     0.386000000    -4.292000000
H     7.206000000     1.040000000    -3.169000000
O     5.043000000    -7.994000000     1.953000000
H     5.760000000    -7.924000000     1.322000000
H     4.447000000    -7.282000000     1.719000000
O     5.540000000    -6.525000000    -2.881000000
H     6.442000000    -6.552000000    -2.561000000
H     5.377000000    -5.598000000    -3.058000000
O     7.386000000    -3.641000000     2.433000000
H     6.532000000    -3.332000000     2.737000000
H     7.255000000    -3.833000000     1.505000000
O     8.087000000    -2.798000000    -3.053000000
H     7.223000000    -3.204000000    -2.987000000
H     8.666000000    -3.385000000    -2.567000000
O     5.351000000    -1.453000000     6.855000000
H     4.409000000    -1.462000000     7.026000000
H     5.432000000    -1.734000000     5.943000000
O    10.297000000    -3.440000000     2.726000000
H    10.625000000    -2.645000000     3.146000000
H     9.469000000    -3.175000000     2.326000000
O     7.229000000     1.238000000     4.992000000
H     7.428000000     0.326000000     4.781000000
H     6.956000000     1.622000000     4.159000000
O     4.991000000    -5.266000000     5.459000000
H     5.846000000    -5.598000000     5.186000000
H     5.138000000    -4.919000000     6.339000000
O     8.237000000    -1.351000000     4.273000000
H     9.180000000    -1.468000000     4.385000000
H     7.853000000    -2.156000000     4.620000000
O     5.423000000    -3.710000000    -3.254000000
H     4.666000000    -3.213000000    -2.946000000
H     5.517000000    -3.459000000    -4.173000000
O     8.576000000     1.169000000     1.339000000
H     9.417000000     0.753000000     1.528000000
H     7.959000000     0.441000000     1.270000000
O     3.003000000    -2.489000000    -2.432000000
H     2.562000000    -2.727000000    -1.616000000
H     2.747000000    -1.579000000    -2.585000000
O     5.102000000    -2.709000000     4.511000000
H     4.695000000    -2.616000000     3.649000000
H     5.137000000    -3.654000000     4.658000000
O     3.962000000    -5.730000000     1.286000000
H     4.224000000    -5.402000000     0.426000000
H     4.106000000    -4.992000000     1.879000000
O     7.326000000    -1.073000000     1.321000000
H     7.317000000    -1.149000000     2.275000000
H     6.413000000    -1.199000000     1.062000000
O     6.347000000    -0.356000000    -1.771000000
H     6.085000000    -0.599000000    -0.883000000
H     6.959000000    -1.043000000    -2.036000000
O     8.403000000    -4.276000000     4.938000000
H     8.072000000    -4.060000000     4.067000000
H     8.244000000    -5.215000000     5.030000000
O     5.482000000    -4.162000000    -0.464000000
H     5.643000000    -3.265000000    -0.172000000
H     5.529000000    -4.115000000    -1.419000000
