215
-1440.14831
C     1.648000000     3.105000000    -4.060000000
H     1.752000000     2.231000000    -4.698000000
C     2.314000000     3.129000000    -2.815000000
C     2.148000000     4.196000000    -1.968000000
H     2.620000000     4.287000000    -0.993000000
C     3.191000000     1.977000000    -2.352000000
O     3.770000000     1.161000000    -3.390000000
H     2.465000000     1.349000000    -1.816000000
O     4.243000000     2.333000000    -1.401000000
C     4.262000000     1.629000000    -0.224000000
C     3.754000000     2.245000000     0.914000000
H     3.124000000     3.130000000     0.874000000
C     3.785000000     1.543000000     2.086000000
O     3.054000000     1.964000000     3.221000000
C     4.357000000     0.293000000     2.154000000
C     4.200000000    -0.620000000     3.371000000
H     5.025000000    -1.336000000     3.393000000
C     2.871000000    -1.361000000     3.595000000
C     2.805000000    -2.681000000     3.174000000
H     3.606000000    -3.173000000     2.627000000
H     4.460000000    -0.073000000     4.280000000
C     4.925000000    -0.249000000     1.019000000
H     5.405000000    -1.217000000     1.137000000
C     4.889000000     0.417000000    -0.171000000
C     5.439000000    -0.212000000    -1.477000000
H     6.250000000    -0.924000000    -1.309000000
H     5.983000000     0.362000000    -2.230000000
C     4.317000000    -0.899000000    -2.287000000
C     3.971000000    -2.192000000    -1.965000000
H     4.548000000    -2.737000000    -1.222000000
C     3.574000000    -0.229000000    -3.270000000
C     2.497000000    -0.891000000    -3.870000000
H     1.812000000    -0.323000000    -4.493000000
C     2.118000000    -2.179000000    -3.537000000
O     0.898000000    -2.665000000    -4.103000000
C    -0.213000000    -2.773000000    -3.231000000
C    -1.480000000    -2.289000000    -3.847000000
C    -2.713000000    -2.518000000    -3.316000000
H    -2.717000000    -3.298000000    -2.558000000
C    -1.371000000    -1.353000000    -4.864000000
H    -0.407000000    -1.010000000    -5.229000000
O    -0.196000000    -4.120000000    -2.777000000
H    -0.121000000    -2.034000000    -2.421000000
C     2.951000000    -2.916000000    -2.687000000
C     2.589000000    -4.416000000    -2.347000000
H     3.467000000    -5.045000000    -2.188000000
H     2.203000000    -4.914000000    -3.240000000
C     1.581000000    -4.540000000    -1.211000000
C     1.984000000    -4.647000000     0.113000000
H     3.052000000    -4.648000000     0.315000000
C     0.234000000    -4.248000000    -1.478000000
C    -0.699000000    -4.324000000    -0.477000000
H    -1.776000000    -4.253000000    -0.605000000
C    -0.326000000    -4.490000000     0.856000000
O    -1.319000000    -4.391000000     1.792000000
C    -1.518000000    -3.295000000     2.683000000
C    -2.987000000    -3.095000000     2.979000000
C    -3.954000000    -3.388000000     2.035000000
H    -3.576000000    -3.837000000     1.120000000
C    -3.373000000    -2.361000000     4.134000000
H    -2.613000000    -2.074000000     4.857000000
O    -0.737000000    -3.532000000     3.871000000
H    -1.132000000    -2.470000000     2.066000000
C     1.068000000    -4.642000000     1.157000000
C     1.522000000    -4.818000000     2.637000000
H     2.407000000    -5.444000000     2.775000000
H     0.776000000    -5.452000000     3.121000000
C     1.671000000    -3.437000000     3.351000000
C     0.537000000    -2.927000000     3.907000000
C     0.582000000    -1.500000000     4.146000000
H    -0.278000000    -0.984000000     4.566000000
C     1.780000000    -0.799000000     4.150000000
O     1.746000000     0.556000000     4.491000000
C     1.680000000     1.527000000     3.372000000
H     1.520000000     1.024000000     2.407000000
C     0.716000000     2.715000000     3.581000000
C     1.167000000     4.016000000     3.370000000
H     2.176000000     4.215000000     3.017000000
C    -0.580000000     2.418000000     4.029000000
H    -0.877000000     1.377000000     4.127000000
C    -1.469000000     3.509000000     4.173000000
O    -2.765000000     3.287000000     4.562000000
C    -1.027000000     4.829000000     3.934000000
H    -1.698000000     5.684000000     3.978000000
C     0.285000000     5.047000000     3.551000000
O     0.680000000     6.285000000     3.235000000
C     1.426000000     6.456000000     2.105000000
C     0.823000000     6.315000000     0.883000000
H    -0.178000000     5.922000000     0.727000000
C     2.676000000     6.972000000     2.251000000
H     3.038000000     7.250000000     3.237000000
C     3.462000000     7.262000000     1.168000000
H     4.500000000     7.552000000     1.310000000
C     2.863000000     7.041000000    -0.097000000
H     3.444000000     7.222000000    -0.998000000
C     1.603000000     6.595000000    -0.255000000
O     1.087000000     6.474000000    -1.575000000
C     1.330000000     5.268000000    -2.359000000
C     0.651000000     5.264000000    -3.582000000
H    -0.017000000     6.087000000    -3.823000000
C     0.849000000     4.144000000    -4.488000000
O     0.152000000     4.079000000    -5.608000000
C    -0.133000000     3.020000000    -6.304000000
C    -0.953000000     1.968000000    -5.814000000
H    -1.411000000     1.984000000    -4.828000000
C     0.262000000     3.031000000    -7.646000000
H     0.912000000     3.837000000    -7.976000000
C    -0.154000000     2.022000000    -8.523000000
H     0.066000000     2.142000000    -9.580000000
C    -0.978000000     0.969000000    -8.034000000
H    -1.336000000     0.245000000    -8.761000000
C    -1.336000000     0.947000000    -6.698000000
O    -2.418000000     0.228000000    -6.353000000
C    -2.497000000    -0.659000000    -5.321000000
C    -3.707000000    -0.934000000    -4.718000000
H    -4.575000000    -0.317000000    -4.938000000
C    -3.854000000    -1.941000000    -3.810000000
O    -5.063000000    -2.039000000    -3.110000000
C    -5.389000000    -3.021000000    -2.222000000
C    -5.748000000    -2.696000000    -0.932000000
H    -5.767000000    -1.697000000    -0.504000000
C    -5.413000000    -4.356000000    -2.670000000
H    -5.226000000    -4.563000000    -3.720000000
C    -5.597000000    -5.406000000    -1.718000000
H    -5.484000000    -6.448000000    -2.008000000
C    -5.795000000    -5.123000000    -0.384000000
H    -6.067000000    -5.886000000     0.340000000
C    -5.957000000    -3.761000000    -0.054000000
O    -6.274000000    -3.403000000     1.192000000
C    -5.314000000    -3.051000000     2.183000000
C    -5.675000000    -2.292000000     3.258000000
H    -6.722000000    -2.000000000     3.287000000
C    -4.700000000    -1.857000000     4.210000000
O    -4.998000000    -0.932000000     5.180000000
C    -4.240000000     0.091000000     5.722000000
C    -3.809000000     0.050000000     6.991000000
H    -3.990000000    -0.879000000     7.527000000
C    -2.929000000     1.004000000     7.490000000
H    -2.454000000     0.951000000     8.466000000
C    -2.529000000     2.091000000     6.668000000
H    -1.811000000     2.809000000     7.055000000
C    -3.025000000     2.162000000     5.345000000
C    -3.835000000     1.095000000     4.817000000
H    -4.269000000     1.115000000     3.821000000
C    -2.141000000     0.458000000     0.144000000
H    -3.228000000     0.485000000     0.133000000
C    -1.461000000    -0.704000000     0.340000000
H    -1.968000000    -1.649000000     0.518000000
C    -0.051000000    -0.714000000     0.286000000
H     0.468000000    -1.575000000     0.454000000
C     0.633000000     0.441000000     0.108000000
H     1.719000000     0.398000000     0.111000000
C    -0.043000000     1.664000000    -0.071000000
H     0.578000000     2.554000000    -0.146000000
C    -1.474000000     1.689000000     0.008000000
C    -2.240000000     2.995000000    -0.255000000
O    -1.776000000     4.090000000    -0.272000000
O    -3.360000000     2.790000000    -0.647000000
O    -2.405000000     5.436000000    -3.169000000
H    -2.053000000     4.715000000    -2.646000000
H    -3.228000000     5.096000000    -3.521000000
O    -4.355000000     5.821000000     4.291000000
H    -4.168000000     5.328000000     3.492000000
H    -5.232000000     5.537000000     4.548000000
O    -7.924000000     1.028000000    -1.575000000
H    -7.709000000     1.918000000    -1.296000000
H    -8.825000000     1.088000000    -1.893000000
O    -1.891000000     8.212000000    -3.316000000
H    -1.538000000     8.452000000    -4.173000000
H    -1.969000000     7.259000000    -3.347000000
O    -3.434000000     5.337000000    -6.391000000
H    -4.130000000     5.668000000    -6.958000000
H    -3.744000000     5.515000000    -5.503000000
O    -4.115000000     5.163000000     1.803000000
H    -3.256000000     5.042000000     1.397000000
H    -4.361000000     6.061000000     1.579000000
O    -2.491000000     6.624000000    -0.601000000
H    -1.918000000     6.742000000    -1.359000000
H    -2.279000000     5.749000000    -0.275000000
O    -8.365000000     4.833000000     1.999000000
H    -8.962000000     4.164000000     2.335000000
H    -7.526000000     4.382000000     1.910000000
O    -7.864000000     3.644000000    -0.601000000
H    -7.973000000     3.806000000     0.336000000
H    -8.687000000     3.938000000    -0.992000000
O    -4.600000000     3.745000000    -4.301000000
H    -4.818000000     3.467000000    -5.191000000
H    -4.639000000     2.942000000    -3.782000000
O    -7.447000000     5.239000000    -3.368000000
H    -6.797000000     5.039000000    -2.694000000
H    -8.263000000     4.868000000    -3.032000000
O    -6.717000000     1.075000000    -4.481000000
H    -7.119000000     1.944000000    -4.502000000
H    -6.116000000     1.107000000    -3.737000000
O    -4.716000000     8.045000000     1.607000000
H    -4.834000000     8.671000000     0.893000000
H    -5.605000000     7.799000000     1.861000000
O    -5.479000000     2.449000000     1.195000000
H    -4.725000000     2.163000000     0.678000000
H    -5.319000000     3.379000000     1.356000000
O    -7.109000000     0.151000000     1.383000000
H    -7.386000000     0.194000000     0.468000000
H    -6.582000000     0.939000000     1.512000000
O    -5.408000000     7.326000000    -1.243000000
H    -4.684000000     7.799000000    -1.653000000
H    -5.145000000     6.406000000    -1.280000000
O    -5.405000000     4.535000000    -1.083000000
H    -6.071000000     3.886000000    -0.856000000
H    -4.574000000     4.069000000    -0.990000000
O    -1.848000000     8.902000000     0.850000000
H    -1.264000000     8.900000000     0.092000000
H    -2.449000000     8.174000000     0.691000000
O    -4.581000000     1.308000000    -2.542000000
H    -4.025000000     1.694000000    -1.865000000
H    -4.368000000     0.375000000    -2.523000000
