215
-1445.09928
C    -0.230000000    -3.047000000     4.207000000
H    -1.052000000    -3.556000000     3.710000000
C    -0.281000000    -1.641000000     4.329000000
C     0.830000000    -0.958000000     4.793000000
H     0.837000000     0.123000000     4.905000000
C    -1.462000000    -0.872000000     3.940000000
O    -2.594000000    -1.721000000     3.882000000
H    -1.203000000    -0.567000000     2.916000000
O    -1.723000000     0.310000000     4.696000000
C    -1.915000000     1.493000000     4.020000000
C    -0.884000000     2.393000000     3.823000000
H     0.080000000     2.162000000     4.268000000
C    -1.043000000     3.433000000     3.013000000
O     0.090000000     4.156000000     2.722000000
C    -2.293000000     3.626000000     2.315000000
C    -2.507000000     4.725000000     1.256000000
H    -3.587000000     4.877000000     1.203000000
C    -2.018000000     4.277000000    -0.126000000
C    -2.933000000     3.751000000    -1.127000000
H    -3.949000000     3.523000000    -0.816000000
H    -1.988000000     5.647000000     1.526000000
C    -3.292000000     2.665000000     2.497000000
H    -4.209000000     2.708000000     1.914000000
C    -3.146000000     1.585000000     3.360000000
C    -4.340000000     0.669000000     3.466000000
H    -5.277000000     1.211000000     3.326000000
H    -4.265000000     0.303000000     4.492000000
C    -4.151000000    -0.542000000     2.487000000
C    -4.773000000    -0.435000000     1.227000000
H    -5.248000000     0.512000000     0.982000000
C    -3.369000000    -1.655000000     2.773000000
C    -3.321000000    -2.711000000     1.862000000
H    -2.707000000    -3.595000000     2.015000000
C    -3.956000000    -2.583000000     0.615000000
O    -3.605000000    -3.539000000    -0.287000000
C    -2.672000000    -3.184000000    -1.283000000
C    -1.629000000    -4.296000000    -1.627000000
C    -0.988000000    -4.393000000    -2.888000000
H    -1.207000000    -3.639000000    -3.639000000
C    -1.149000000    -5.106000000    -0.596000000
H    -1.654000000    -4.898000000     0.344000000
O    -3.394000000    -2.793000000    -2.518000000
H    -2.013000000    -2.350000000    -0.998000000
C    -4.686000000    -1.409000000     0.309000000
C    -5.280000000    -1.191000000    -1.060000000
H    -6.140000000    -0.527000000    -0.953000000
H    -5.671000000    -2.132000000    -1.454000000
C    -4.287000000    -0.584000000    -2.025000000
C    -4.414000000     0.802000000    -2.271000000
H    -5.070000000     1.493000000    -1.748000000
C    -3.414000000    -1.428000000    -2.735000000
C    -2.484000000    -0.865000000    -3.605000000
H    -1.835000000    -1.473000000    -4.231000000
C    -2.456000000     0.533000000    -3.743000000
O    -1.472000000     0.944000000    -4.603000000
C    -0.428000000     1.624000000    -3.950000000
C     0.925000000     1.356000000    -4.581000000
C     1.097000000     0.146000000    -5.220000000
H     0.321000000    -0.615000000    -5.218000000
C     2.008000000     2.190000000    -4.288000000
H     1.827000000     3.163000000    -3.838000000
O    -0.737000000     3.030000000    -3.921000000
H    -0.505000000     1.268000000    -2.912000000
C    -3.453000000     1.346000000    -3.148000000
C    -3.488000000     2.833000000    -3.375000000
H    -4.452000000     3.297000000    -3.157000000
H    -3.235000000     2.987000000    -4.426000000
C    -2.517000000     3.437000000    -2.426000000
C    -1.172000000     3.575000000    -2.772000000
C    -0.232000000     3.989000000    -1.748000000
H     0.826000000     4.125000000    -1.956000000
C    -0.629000000     4.375000000    -0.464000000
O     0.373000000     4.713000000     0.411000000
C     0.814000000     3.839000000     1.489000000
H     0.656000000     2.812000000     1.129000000
C     2.301000000     3.915000000     1.656000000
C     2.927000000     3.559000000     2.829000000
H     2.319000000     3.208000000     3.660000000
C     3.152000000     4.290000000     0.601000000
H     2.768000000     4.539000000    -0.385000000
C     4.514000000     4.436000000     0.785000000
O     5.372000000     4.881000000    -0.164000000
C     5.096000000     4.115000000     2.011000000
H     6.177000000     4.080000000     2.122000000
C     4.313000000     3.558000000     2.991000000
O     4.959000000     3.136000000     4.115000000
C     4.274000000     2.419000000     5.070000000
C     4.040000000     1.108000000     4.800000000
H     4.264000000     0.798000000     3.783000000
C     3.832000000     3.018000000     6.234000000
H     4.023000000     4.071000000     6.424000000
C     3.184000000     2.283000000     7.208000000
H     2.875000000     2.754000000     8.138000000
C     2.878000000     0.906000000     6.974000000
H     2.246000000     0.387000000     7.690000000
C     3.387000000     0.353000000     5.825000000
O     3.149000000    -1.019000000     5.611000000
C     2.040000000    -1.644000000     5.181000000
C     2.043000000    -2.992000000     5.109000000
H     2.849000000    -3.629000000     5.467000000
C     0.949000000    -3.684000000     4.569000000
O     0.861000000    -5.069000000     4.605000000
C     0.229000000    -5.822000000     3.686000000
C     0.593000000    -5.864000000     2.314000000
H     1.363000000    -5.185000000     1.954000000
C    -0.793000000    -6.599000000     4.158000000
H    -1.176000000    -6.544000000     5.174000000
C    -1.384000000    -7.564000000     3.328000000
H    -2.162000000    -8.235000000     3.682000000
C    -1.130000000    -7.594000000     2.012000000
H    -1.774000000    -8.252000000     1.433000000
C    -0.102000000    -6.733000000     1.526000000
O     0.333000000    -6.862000000     0.222000000
C    -0.204000000    -6.097000000    -0.805000000
C     0.350000000    -6.208000000    -2.028000000
H     1.167000000    -6.918000000    -2.123000000
C     0.010000000    -5.367000000    -3.111000000
O     0.558000000    -5.531000000    -4.356000000
C     0.664000000    -4.601000000    -5.304000000
C     1.693000000    -3.674000000    -5.189000000
H     2.430000000    -3.717000000    -4.391000000
C    -0.279000000    -4.530000000    -6.321000000
H    -1.072000000    -5.274000000    -6.335000000
C    -0.319000000    -3.553000000    -7.222000000
H    -1.090000000    -3.519000000    -7.987000000
C     0.666000000    -2.566000000    -7.127000000
H     0.699000000    -1.731000000    -7.823000000
C     1.624000000    -2.589000000    -6.087000000
O     2.579000000    -1.558000000    -6.011000000
C     2.354000000    -0.302000000    -5.529000000
C     3.460000000     0.497000000    -5.177000000
H     4.389000000    -0.068000000    -5.173000000
C     3.305000000     1.807000000    -4.592000000
O     4.476000000     2.573000000    -4.335000000
C     4.523000000     3.726000000    -3.585000000
C     4.391000000     5.005000000    -4.245000000
H     4.277000000     4.974000000    -5.325000000
C     4.664000000     6.123000000    -3.543000000
H     4.571000000     7.002000000    -4.175000000
C     5.007000000     5.990000000    -2.172000000
H     5.069000000     6.858000000    -1.520000000
C     5.025000000     4.793000000    -1.504000000
C     4.763000000     3.587000000    -2.181000000
H     4.803000000     2.653000000    -1.628000000
C     1.346000000    -1.503000000     1.169000000
H     1.748000000    -2.285000000     1.809000000
C    -0.049000000    -1.430000000     1.015000000
H    -0.722000000    -2.172000000     1.437000000
C    -0.651000000    -0.387000000     0.354000000
H    -1.708000000    -0.404000000     0.180000000
C     0.089000000     0.561000000    -0.338000000
H    -0.578000000     1.236000000    -0.869000000
C     1.491000000     0.415000000    -0.338000000
H     2.101000000     1.029000000    -0.996000000
C     2.118000000    -0.555000000     0.457000000
C     3.604000000    -0.664000000     0.699000000
O     4.274000000    -0.102000000    -0.123000000
O     4.188000000    -1.485000000     1.413000000
O     7.433000000     2.631000000    -0.588000000
H     7.764000000     2.218000000     0.209000000
H     7.052000000     1.911000000    -1.091000000
O     8.295000000    -0.743000000    -3.168000000
H     8.535000000    -1.583000000    -2.778000000
H     7.527000000    -0.459000000    -2.674000000
O     3.655000000    -6.905000000    -2.421000000
H     4.238000000    -6.185000000    -2.662000000
H     3.412000000    -6.723000000    -1.513000000
O     8.123000000    -3.811000000     2.409000000
H     7.204000000    -3.599000000     2.570000000
H     8.100000000    -4.661000000     1.970000000
O     7.604000000    -1.402000000    -0.201000000
H     7.226000000    -0.926000000     0.538000000
H     8.550000000    -1.328000000    -0.076000000
O    10.607000000    -2.930000000     2.840000000
H    10.644000000    -2.863000000     3.794000000
H     9.683000000    -3.087000000     2.647000000
O     7.480000000     0.853000000     6.112000000
H     7.134000000     0.395000000     5.347000000
H     7.988000000     0.189000000     6.579000000
O     4.146000000    -5.989000000     4.303000000
H     5.050000000    -6.181000000     4.552000000
H     3.657000000    -6.034000000     5.125000000
O     7.114000000    -1.067000000     4.174000000
H     6.355000000    -1.624000000     3.998000000
H     7.780000000    -1.668000000     4.506000000
O     4.679000000    -4.363000000    -3.265000000
H     4.517000000    -3.471000000    -2.960000000
H     4.831000000    -4.271000000    -4.206000000
O     8.579000000     2.169000000     1.654000000
H     9.026000000     2.468000000     2.446000000
H     7.742000000     1.826000000     1.966000000
O     3.835000000    -1.836000000    -2.423000000
H     3.088000000    -1.348000000    -2.769000000
H     4.176000000    -1.285000000    -1.719000000
O     8.390000000    -3.861000000    -0.910000000
H     7.896000000    -3.062000000    -0.728000000
H     9.238000000    -3.719000000    -0.491000000
O     7.109000000    -5.626000000    -2.314000000
H     6.260000000    -5.190000000    -2.243000000
H     7.732000000    -4.999000000    -1.946000000
O     5.131000000    -2.998000000     3.366000000
H     4.799000000    -2.445000000     2.658000000
H     4.567000000    -3.771000000     3.350000000
O     5.052000000    -6.188000000     0.520000000
H     4.805000000    -5.278000000     0.356000000
H     5.833000000    -6.129000000     1.071000000
O     6.422000000     0.319000000     1.550000000
H     6.245000000    -0.115000000     2.384000000
H     5.636000000     0.160000000     1.026000000
O     6.034000000     0.574000000    -2.175000000
H     5.374000000     0.391000000    -1.506000000
H     5.533000000     0.668000000    -2.985000000
O     3.860000000    -3.762000000    -0.083000000
H     4.074000000    -2.992000000     0.444000000
H     3.824000000    -3.436000000    -0.981000000
