215
-1471.75388
C     0.153000000    -3.496000000     4.694000000
H    -0.758000000    -3.987000000     4.361000000
C     0.221000000    -2.085000000     4.659000000
C     1.296000000    -1.379000000     5.180000000
H     1.235000000    -0.296000000     5.117000000
C    -0.946000000    -1.219000000     4.208000000
O    -2.155000000    -1.975000000     4.067000000
H    -0.609000000    -0.891000000     3.214000000
O    -1.111000000    -0.027000000     5.062000000
C    -1.466000000     1.099000000     4.244000000
C    -0.534000000     2.166000000     4.132000000
H     0.450000000     2.010000000     4.567000000
C    -0.827000000     3.315000000     3.344000000
O     0.172000000     4.205000000     2.982000000
C    -2.104000000     3.456000000     2.778000000
C    -2.466000000     4.643000000     1.854000000
H    -3.495000000     4.990000000     1.970000000
C    -2.212000000     4.334000000     0.413000000
C    -3.287000000     3.917000000    -0.428000000
H    -4.284000000     3.760000000    -0.024000000
H    -1.881000000     5.485000000     2.229000000
C    -3.025000000     2.468000000     3.011000000
H    -4.021000000     2.528000000     2.581000000
C    -2.725000000     1.247000000     3.599000000
C    -3.857000000     0.260000000     3.801000000
H    -4.824000000     0.760000000     3.885000000
H    -3.918000000    -0.207000000     4.786000000
C    -3.850000000    -0.832000000     2.725000000
C    -4.604000000    -0.773000000     1.594000000
H    -5.241000000     0.098000000     1.457000000
C    -2.952000000    -1.879000000     2.936000000
C    -2.717000000    -2.823000000     1.950000000
H    -2.012000000    -3.617000000     2.183000000
C    -3.434000000    -2.748000000     0.784000000
O    -3.043000000    -3.483000000    -0.300000000
C    -2.181000000    -2.914000000    -1.184000000
C    -0.980000000    -3.752000000    -1.557000000
C    -0.399000000    -3.714000000    -2.848000000
H    -0.996000000    -3.310000000    -3.662000000
C    -0.373000000    -4.455000000    -0.498000000
H    -0.856000000    -4.405000000     0.474000000
O    -3.048000000    -2.604000000    -2.310000000
H    -1.877000000    -1.913000000    -0.842000000
C    -4.383000000    -1.739000000     0.597000000
C    -5.212000000    -1.609000000    -0.684000000
H    -6.185000000    -1.200000000    -0.400000000
H    -5.451000000    -2.556000000    -1.171000000
C    -4.397000000    -0.728000000    -1.651000000
C    -4.631000000     0.631000000    -1.688000000
H    -5.342000000     1.105000000    -1.017000000
C    -3.417000000    -1.306000000    -2.437000000
C    -2.748000000    -0.582000000    -3.354000000
H    -2.007000000    -0.999000000    -4.030000000
C    -3.080000000     0.724000000    -3.457000000
O    -2.475000000     1.541000000    -4.343000000
C    -1.276000000     2.022000000    -3.806000000
C    -0.017000000     1.763000000    -4.650000000
C     0.008000000     0.635000000    -5.419000000
H    -0.835000000     0.008000000    -5.700000000
C     1.191000000     2.394000000    -4.381000000
H     1.153000000     3.358000000    -3.880000000
O    -1.404000000     3.383000000    -3.516000000
H    -1.030000000     1.486000000    -2.878000000
C    -3.930000000     1.399000000    -2.593000000
C    -4.045000000     2.928000000    -2.511000000
H    -4.987000000     3.174000000    -2.015000000
H    -4.011000000     3.273000000    -3.546000000
C    -2.965000000     3.592000000    -1.731000000
C    -1.685000000     3.662000000    -2.218000000
C    -0.685000000     4.110000000    -1.361000000
H     0.341000000     4.138000000    -1.721000000
C    -0.917000000     4.485000000    -0.077000000
O     0.165000000     4.949000000     0.731000000
C     0.708000000     3.989000000     1.635000000
H     0.327000000     2.991000000     1.370000000
C     2.188000000     3.819000000     1.466000000
C     2.906000000     2.954000000     2.294000000
H     2.478000000     2.241000000     2.994000000
C     2.899000000     4.457000000     0.432000000
H     2.290000000     5.027000000    -0.265000000
C     4.279000000     4.331000000     0.291000000
O     4.876000000     4.895000000    -0.856000000
C     5.003000000     3.705000000     1.254000000
H     6.074000000     3.608000000     1.095000000
C     4.322000000     2.904000000     2.200000000
O     4.984000000     2.085000000     3.021000000
C     4.535000000     1.670000000     4.265000000
C     4.348000000     0.303000000     4.555000000
H     4.624000000    -0.469000000     3.841000000
C     4.165000000     2.649000000     5.218000000
H     4.220000000     3.700000000     4.945000000
C     3.563000000     2.329000000     6.399000000
H     3.301000000     3.164000000     7.044000000
C     3.379000000     0.953000000     6.685000000
H     2.794000000     0.659000000     7.553000000
C     3.755000000    -0.015000000     5.772000000
O     3.497000000    -1.328000000     6.101000000
C     2.394000000    -2.007000000     5.699000000
C     2.371000000    -3.434000000     5.653000000
H     3.223000000    -4.020000000     5.988000000
C     1.305000000    -4.153000000     5.100000000
O     1.335000000    -5.519000000     4.941000000
C     0.835000000    -6.154000000     3.805000000
C     1.334000000    -5.792000000     2.562000000
H     2.101000000    -5.024000000     2.500000000
C    -0.036000000    -7.246000000     3.926000000
H    -0.366000000    -7.613000000     4.894000000
C    -0.464000000    -7.927000000     2.773000000
H    -1.180000000    -8.735000000     2.895000000
C    -0.102000000    -7.473000000     1.513000000
H    -0.522000000    -7.977000000     0.647000000
C     0.846000000    -6.407000000     1.401000000
O     1.372000000    -6.035000000     0.196000000
C     0.725000000    -5.248000000    -0.752000000
C     1.211000000    -5.239000000    -2.009000000
H     2.046000000    -5.918000000    -2.161000000
C     0.705000000    -4.549000000    -3.140000000
O     1.224000000    -4.719000000    -4.437000000
C     0.714000000    -3.969000000    -5.488000000
C     1.149000000    -2.680000000    -5.732000000
H     2.008000000    -2.249000000    -5.223000000
C    -0.242000000    -4.562000000    -6.284000000
H    -0.471000000    -5.617000000    -6.163000000
C    -0.818000000    -3.796000000    -7.309000000
H    -1.619000000    -4.169000000    -7.942000000
C    -0.416000000    -2.498000000    -7.496000000
H    -0.857000000    -1.856000000    -8.255000000
C     0.676000000    -1.981000000    -6.835000000
O     1.205000000    -0.728000000    -7.055000000
C     1.191000000     0.266000000    -6.062000000
C     2.354000000     0.950000000    -5.906000000
H     3.236000000     0.667000000    -6.475000000
C     2.376000000     2.044000000    -5.035000000
O     3.562000000     2.646000000    -4.830000000
C     3.773000000     3.824000000    -4.186000000
C     3.799000000     5.033000000    -4.798000000
H     3.620000000     4.980000000    -5.869000000
C     3.885000000     6.200000000    -4.115000000
H     3.654000000     7.165000000    -4.559000000
C     4.209000000     6.171000000    -2.711000000
H     4.342000000     7.101000000    -2.164000000
C     4.302000000     4.956000000    -2.060000000
C     4.087000000     3.790000000    -2.784000000
H     4.170000000     2.839000000    -2.265000000
C     2.418000000    -1.784000000     0.745000000
H     2.939000000    -2.695000000     1.030000000
C     1.054000000    -1.683000000     1.160000000
H     0.590000000    -2.495000000     1.713000000
C     0.250000000    -0.596000000     0.807000000
H    -0.758000000    -0.478000000     1.145000000
C     0.822000000     0.357000000    -0.077000000
H     0.224000000     1.237000000    -0.299000000
C     2.171000000     0.289000000    -0.503000000
H     2.611000000     1.119000000    -1.050000000
C     2.973000000    -0.754000000    -0.017000000
C     4.417000000    -0.877000000    -0.509000000
O     4.925000000    -0.105000000    -1.284000000
O     5.226000000    -1.721000000    -0.054000000
O     6.708000000     1.385000000     0.347000000
H     7.297000000     0.663000000     0.567000000
H     5.958000000     0.962000000    -0.072000000
O     8.171000000     2.373000000    -1.720000000
H     7.554000000     1.978000000    -1.104000000
H     7.745000000     2.288000000    -2.573000000
O     8.187000000    -0.343000000    -4.579000000
H     8.042000000    -1.173000000    -4.124000000
H     7.378000000     0.150000000    -4.440000000
O     4.708000000    -6.621000000    -3.537000000
H     4.331000000    -5.770000000    -3.313000000
H     4.735000000    -7.096000000    -2.707000000
O     7.548000000    -3.126000000    -0.049000000
H     6.698000000    -2.737000000     0.159000000
H     7.333000000    -3.967000000    -0.454000000
O    10.373000000    -0.503000000    -2.231000000
H     9.431000000    -0.428000000    -2.076000000
H    10.471000000    -1.326000000    -2.710000000
O     8.282000000     2.398000000     2.502000000
H     7.646000000     2.060000000     1.872000000
H     8.551000000     1.630000000     3.006000000
O     6.264000000    -4.982000000     2.425000000
H     6.412000000    -5.566000000     3.169000000
H     5.657000000    -5.462000000     1.862000000
O     7.491000000    -0.574000000     4.316000000
H     8.054000000    -0.351000000     3.574000000
H     6.961000000    -1.307000000     4.003000000
O     3.823000000    -3.943000000    -3.329000000
H     3.048000000    -3.385000000    -3.275000000
H     4.297000000    -3.622000000    -4.096000000
O     8.445000000    -0.548000000     1.274000000
H     9.318000000    -0.823000000     0.992000000
H     7.998000000    -1.364000000     1.499000000
O     2.318000000    -1.589000000    -2.905000000
H     1.786000000    -1.345000000    -2.147000000
H     2.865000000    -0.822000000    -3.071000000
O     7.356000000    -3.542000000    -4.337000000
H     6.516000000    -3.126000000    -4.528000000
H     7.579000000    -3.238000000    -3.457000000
O     6.118000000    -2.338000000     2.712000000
H     5.429000000    -2.308000000     2.049000000
H     6.338000000    -3.267000000     2.787000000
O     5.398000000    -6.594000000     0.261000000
H     5.107000000    -5.850000000    -0.267000000
H     6.214000000    -6.877000000    -0.153000000
O     7.317000000    -1.744000000    -2.311000000
H     7.583000000    -2.363000000    -1.631000000
H     6.627000000    -1.222000000    -1.902000000
O     5.115000000    -2.144000000    -5.098000000
H     5.131000000    -1.353000000    -4.560000000
H     4.603000000    -1.899000000    -5.869000000
O     5.586000000     0.298000000    -3.663000000
H     5.335000000     0.292000000    -2.740000000
H     5.291000000     1.150000000    -3.986000000
O     4.572000000    -4.175000000    -0.676000000
H     4.685000000    -3.263000000    -0.408000000
H     4.363000000    -4.126000000    -1.609000000
