215
-1446.61173
C     0.102000000    -3.734000000     3.663000000
H    -0.795000000    -4.249000000     3.330000000
C     0.130000000    -2.401000000     3.946000000
C     1.268000000    -1.798000000     4.488000000
H     1.269000000    -0.753000000     4.786000000
C    -1.109000000    -1.563000000     3.660000000
O    -2.291000000    -2.309000000     3.629000000
H    -0.994000000    -1.016000000     2.712000000
O    -1.230000000    -0.513000000     4.668000000
C    -1.702000000     0.645000000     4.129000000
C    -0.649000000     1.583000000     4.041000000
H     0.324000000     1.331000000     4.455000000
C    -0.950000000     2.784000000     3.317000000
O     0.086000000     3.692000000     3.195000000
C    -2.217000000     3.046000000     2.792000000
C    -2.526000000     4.453000000     2.217000000
H    -3.529000000     4.856000000     2.370000000
C    -2.196000000     4.419000000     0.726000000
C    -3.123000000     3.971000000    -0.190000000
H    -4.169000000     3.914000000     0.101000000
H    -1.920000000     5.254000000     2.644000000
C    -3.206000000     2.116000000     2.854000000
H    -4.199000000     2.308000000     2.458000000
C    -2.958000000     0.846000000     3.474000000
C    -4.114000000    -0.129000000     3.712000000
H    -5.020000000     0.478000000     3.764000000
H    -3.945000000    -0.538000000     4.710000000
C    -4.123000000    -1.122000000     2.631000000
C    -4.871000000    -0.836000000     1.500000000
H    -5.490000000     0.057000000     1.495000000
C    -3.176000000    -2.119000000     2.621000000
C    -3.028000000    -2.851000000     1.456000000
H    -2.284000000    -3.644000000     1.465000000
C    -3.907000000    -2.764000000     0.355000000
O    -3.617000000    -3.505000000    -0.749000000
C    -2.621000000    -2.901000000    -1.651000000
C    -1.679000000    -3.907000000    -2.263000000
C    -1.248000000    -3.935000000    -3.593000000
H    -1.669000000    -3.159000000    -4.227000000
C    -1.076000000    -4.843000000    -1.438000000
H    -1.366000000    -4.854000000    -0.391000000
O    -3.480000000    -2.323000000    -2.671000000
H    -2.038000000    -2.097000000    -1.180000000
C    -4.800000000    -1.625000000     0.326000000
C    -5.527000000    -1.198000000    -0.906000000
H    -6.362000000    -0.543000000    -0.648000000
H    -5.957000000    -2.088000000    -1.369000000
C    -4.630000000    -0.394000000    -1.833000000
C    -4.476000000     0.957000000    -1.585000000
H    -5.162000000     1.514000000    -0.951000000
C    -3.684000000    -1.039000000    -2.651000000
C    -2.830000000    -0.297000000    -3.435000000
H    -2.194000000    -0.754000000    -4.188000000
C    -2.828000000     1.065000000    -3.347000000
O    -1.883000000     1.700000000    -4.100000000
C    -0.803000000     2.297000000    -3.360000000
C     0.569000000     1.996000000    -3.953000000
C     0.834000000     0.706000000    -4.531000000
H     0.003000000     0.006000000    -4.533000000
C     1.651000000     2.934000000    -3.862000000
H     1.529000000     3.958000000    -3.519000000
O    -1.027000000     3.696000000    -3.263000000
H    -0.869000000     1.818000000    -2.372000000
C    -3.643000000     1.741000000    -2.448000000
C    -3.763000000     3.239000000    -2.480000000
H    -4.759000000     3.522000000    -2.134000000
H    -3.615000000     3.639000000    -3.485000000
C    -2.728000000     3.784000000    -1.519000000
C    -1.388000000     4.000000000    -1.939000000
C    -0.495000000     4.409000000    -0.992000000
H     0.549000000     4.495000000    -1.282000000
C    -0.837000000     4.610000000     0.340000000
O     0.127000000     4.983000000     1.224000000
C     0.708000000     3.862000000     1.931000000
H     0.448000000     2.910000000     1.445000000
C     2.259000000     3.915000000     2.025000000
C     2.895000000     3.247000000     3.110000000
H     2.274000000     3.012000000     3.971000000
C     3.067000000     4.355000000     0.968000000
H     2.541000000     4.878000000     0.174000000
C     4.467000000     4.229000000     1.002000000
O     5.276000000     4.842000000     0.090000000
C     5.031000000     3.612000000     2.121000000
H     6.113000000     3.591000000     2.214000000
C     4.317000000     3.132000000     3.188000000
O     4.982000000     2.598000000     4.255000000
C     4.377000000     1.661000000     5.096000000
C     3.964000000     0.359000000     4.628000000
H     4.004000000     0.094000000     3.575000000
C     4.303000000     2.045000000     6.471000000
H     4.861000000     2.954000000     6.679000000
C     3.706000000     1.146000000     7.390000000
H     3.647000000     1.468000000     8.427000000
C     3.584000000    -0.221000000     6.972000000
H     3.467000000    -1.078000000     7.630000000
C     3.688000000    -0.592000000     5.623000000
O     3.516000000    -1.901000000     5.165000000
C     2.375000000    -2.517000000     4.759000000
C     2.446000000    -3.885000000     4.380000000
H     3.368000000    -4.423000000     4.583000000
C     1.319000000    -4.510000000     3.814000000
O     1.328000000    -5.898000000     3.772000000
C     0.565000000    -6.506000000     2.772000000
C     0.823000000    -6.226000000     1.399000000
H     1.562000000    -5.487000000     1.099000000
C    -0.449000000    -7.371000000     3.078000000
H    -0.719000000    -7.491000000     4.124000000
C    -1.204000000    -7.994000000     2.045000000
H    -2.023000000    -8.681000000     2.241000000
C    -0.921000000    -7.694000000     0.700000000
H    -1.429000000    -8.143000000    -0.150000000
C     0.041000000    -6.778000000     0.377000000
O     0.397000000    -6.618000000    -0.981000000
C    -0.203000000    -5.775000000    -1.841000000
C     0.090000000    -5.849000000    -3.181000000
H     0.871000000    -6.540000000    -3.486000000
C    -0.346000000    -4.845000000    -4.056000000
O    -0.001000000    -4.890000000    -5.417000000
C     0.315000000    -3.694000000    -6.070000000
C     1.128000000    -2.788000000    -5.486000000
H     1.375000000    -2.990000000    -4.447000000
C    -0.351000000    -3.350000000    -7.268000000
H    -1.058000000    -4.131000000    -7.537000000
C     0.091000000    -2.287000000    -8.063000000
H    -0.252000000    -2.232000000    -9.093000000
C     1.103000000    -1.444000000    -7.532000000
H     1.458000000    -0.551000000    -8.041000000
C     1.550000000    -1.690000000    -6.178000000
O     2.444000000    -0.902000000    -5.441000000
C     2.133000000     0.351000000    -4.957000000
C     3.141000000     1.292000000    -4.893000000
H     4.125000000     1.001000000    -5.252000000
C     2.939000000     2.546000000    -4.336000000
O     3.977000000     3.447000000    -4.373000000
C     4.290000000     4.344000000    -3.409000000
C     4.163000000     5.668000000    -3.720000000
H     3.943000000     5.986000000    -4.736000000
C     4.278000000     6.752000000    -2.813000000
H     4.176000000     7.735000000    -3.266000000
C     4.659000000     6.450000000    -1.569000000
H     4.833000000     7.239000000    -0.842000000
C     4.863000000     5.148000000    -1.118000000
C     4.717000000     4.057000000    -2.082000000
H     4.979000000     3.033000000    -1.826000000
C     3.830000000    -2.357000000     1.281000000
H     3.891000000    -3.406000000     1.559000000
C     2.588000000    -1.804000000     1.546000000
H     1.742000000    -2.368000000     1.931000000
C     2.434000000    -0.427000000     1.414000000
H     1.519000000     0.000000000     1.660000000
C     3.467000000     0.328000000     0.885000000
H     3.296000000     1.390000000     0.726000000
C     4.692000000    -0.191000000     0.459000000
H     5.477000000     0.483000000     0.127000000
C     4.849000000    -1.594000000     0.701000000
C     6.117000000    -2.322000000     0.352000000
O     7.055000000    -1.738000000    -0.196000000
O     6.244000000    -3.491000000     0.502000000
O     8.813000000    -3.274000000     2.942000000
H     7.906000000    -3.080000000     2.708000000
H     9.093000000    -3.926000000     2.300000000
O     7.911000000     0.360000000     1.339000000
H     8.841000000     0.268000000     1.132000000
H     7.502000000    -0.418000000     0.962000000
O     4.856000000    -6.192000000     4.630000000
H     5.235000000    -5.564000000     4.015000000
H     5.568000000    -6.803000000     4.818000000
O    10.389000000    -2.678000000    -2.660000000
H    10.382000000    -2.922000000    -1.734000000
H     9.584000000    -3.057000000    -3.013000000
O     4.796000000    -5.521000000    -0.583000000
H     4.756000000    -6.152000000     0.136000000
H     5.303000000    -4.789000000    -0.232000000
O     7.674000000     1.145000000     4.280000000
H     7.364000000     0.753000000     3.464000000
H     7.101000000     1.900000000     4.415000000
O     3.113000000    -4.151000000    -2.364000000
H     2.457000000    -3.913000000    -1.708000000
H     3.792000000    -4.609000000    -1.869000000
O     9.489000000    -2.779000000    -0.107000000
H     8.533000000    -2.815000000    -0.133000000
H     9.691000000    -1.849000000    -0.009000000
O     2.627000000    -1.015000000    -2.169000000
H     3.075000000    -0.774000000    -1.358000000
H     2.614000000    -0.208000000    -2.684000000
O    10.907000000    -5.176000000     0.361000000
H    10.308000000    -4.496000000     0.052000000
H    11.526000000    -4.711000000     0.924000000
O     6.493000000    -5.315000000     2.774000000
H     6.177000000    -5.024000000     1.919000000
H     7.408000000    -5.554000000     2.623000000
O     9.525000000    -0.143000000    -1.108000000
H     9.971000000    -0.923000000    -1.437000000
H     8.716000000    -0.097000000    -1.618000000
O     5.086000000    -2.602000000    -3.391000000
H     4.288000000    -2.862000000    -2.932000000
H     5.684000000    -3.340000000    -3.267000000
O     7.047000000    -0.446000000    -2.486000000
H     6.419000000    -1.013000000    -2.933000000
H     6.950000000    -0.666000000    -1.559000000
O     8.495000000    -3.550000000    -5.064000000
H     7.787000000    -3.663000000    -4.430000000
H     8.415000000    -4.303000000    -5.649000000
O     7.501000000    -6.959000000    -2.020000000
H     7.053000000    -7.146000000    -1.194000000
H     8.394000000    -7.275000000    -1.884000000
O     7.809000000     2.894000000     0.190000000
H     7.735000000     1.984000000     0.478000000
H     7.815000000     2.844000000    -0.765000000
O     7.229000000    -4.306000000    -2.495000000
H     7.310000000    -5.243000000    -2.315000000
H     7.420000000    -3.884000000    -1.657000000
O    10.722000000    -1.355000000     2.008000000
H    10.119000000    -1.916000000     2.496000000
H    11.446000000    -1.933000000     1.769000000
