215
-1452.96763
C    -0.447000000    -3.855000000     3.928000000
H    -1.256000000    -4.257000000     3.324000000
C    -0.478000000    -2.542000000     4.423000000
C     0.612000000    -2.210000000     5.222000000
H     0.644000000    -1.233000000     5.698000000
C    -1.525000000    -1.603000000     3.956000000
O    -2.884000000    -2.130000000     3.899000000
H    -1.271000000    -1.335000000     2.920000000
O    -1.505000000    -0.324000000     4.664000000
C    -1.634000000     0.901000000     4.051000000
C    -0.565000000     1.740000000     3.829000000
H     0.394000000     1.387000000     4.200000000
C    -0.650000000     3.022000000     3.419000000
O     0.516000000     3.714000000     3.246000000
C    -1.906000000     3.444000000     2.970000000
C    -2.112000000     4.678000000     2.158000000
H    -3.172000000     4.938000000     2.192000000
C    -1.545000000     4.631000000     0.682000000
C    -2.486000000     4.388000000    -0.261000000
H    -3.523000000     4.259000000     0.038000000
H    -1.635000000     5.551000000     2.608000000
C    -3.064000000     2.661000000     3.113000000
H    -4.004000000     3.067000000     2.748000000
C    -2.886000000     1.429000000     3.638000000
C    -4.102000000     0.483000000     3.777000000
H    -4.989000000     1.119000000     3.753000000
H    -4.109000000    -0.088000000     4.709000000
C    -4.169000000    -0.515000000     2.649000000
C    -4.978000000    -0.201000000     1.516000000
H    -5.565000000     0.714000000     1.543000000
C    -3.574000000    -1.759000000     2.789000000
C    -3.425000000    -2.551000000     1.659000000
H    -2.694000000    -3.355000000     1.690000000
C    -3.992000000    -2.100000000     0.447000000
O    -3.766000000    -2.960000000    -0.575000000
C    -2.871000000    -2.656000000    -1.662000000
C    -2.028000000    -3.795000000    -2.145000000
C    -1.437000000    -3.732000000    -3.461000000
H    -1.781000000    -2.913000000    -4.089000000
C    -1.706000000    -4.831000000    -1.267000000
H    -2.095000000    -4.796000000    -0.252000000
O    -3.669000000    -1.978000000    -2.731000000
H    -2.223000000    -1.817000000    -1.369000000
C    -4.807000000    -0.964000000     0.411000000
C    -5.400000000    -0.567000000    -0.924000000
H    -6.261000000     0.091000000    -0.793000000
H    -5.747000000    -1.393000000    -1.549000000
C    -4.309000000     0.122000000    -1.788000000
C    -4.179000000     1.466000000    -1.717000000
H    -4.932000000     2.018000000    -1.159000000
C    -3.561000000    -0.608000000    -2.719000000
C    -2.633000000     0.057000000    -3.490000000
H    -2.024000000    -0.544000000    -4.159000000
C    -2.420000000     1.496000000    -3.356000000
O    -1.359000000     2.004000000    -4.109000000
C    -0.209000000     2.602000000    -3.423000000
C     1.098000000     2.271000000    -4.123000000
C     1.277000000     0.949000000    -4.586000000
H     0.527000000     0.172000000    -4.457000000
C     2.095000000     3.196000000    -4.311000000
H     1.932000000     4.234000000    -4.034000000
O    -0.383000000     4.098000000    -3.281000000
H    -0.188000000     2.143000000    -2.423000000
C    -3.297000000     2.215000000    -2.505000000
C    -3.238000000     3.706000000    -2.506000000
H    -4.173000000     4.120000000    -2.124000000
H    -2.997000000     4.080000000    -3.503000000
C    -2.157000000     4.298000000    -1.616000000
C    -0.850000000     4.478000000    -2.023000000
C     0.162000000     4.779000000    -1.074000000
H     1.206000000     4.727000000    -1.370000000
C    -0.207000000     4.785000000     0.271000000
O     0.767000000     4.930000000     1.229000000
C     1.096000000     3.704000000     1.925000000
H     0.592000000     2.899000000     1.369000000
C     2.545000000     3.228000000     1.893000000
C     2.992000000     2.195000000     2.722000000
H     2.274000000     1.674000000     3.350000000
C     3.382000000     3.678000000     0.881000000
H     3.063000000     4.561000000     0.333000000
C     4.689000000     3.172000000     0.747000000
O     5.535000000     3.534000000    -0.263000000
C     5.145000000     2.192000000     1.621000000
H     6.103000000     1.704000000     1.455000000
C     4.325000000     1.726000000     2.648000000
O     4.754000000     0.699000000     3.412000000
C     4.188000000     0.297000000     4.597000000
C     3.575000000    -0.956000000     4.792000000
H     3.530000000    -1.590000000     3.911000000
C     4.265000000     1.172000000     5.645000000
H     4.770000000     2.107000000     5.415000000
C     3.940000000     0.786000000     6.949000000
H     4.184000000     1.326000000     7.860000000
C     3.472000000    -0.490000000     7.176000000
H     3.273000000    -0.845000000     8.184000000
C     3.309000000    -1.394000000     6.120000000
O     2.680000000    -2.588000000     6.369000000
C     1.645000000    -3.075000000     5.560000000
C     1.631000000    -4.382000000     5.113000000
H     2.491000000    -5.009000000     5.332000000
C     0.639000000    -4.745000000     4.174000000
O     0.725000000    -6.034000000     3.679000000
C    -0.059000000    -6.551000000     2.741000000
C     0.226000000    -6.440000000     1.340000000
H     1.223000000    -6.136000000     1.032000000
C    -1.295000000    -7.007000000     3.111000000
H    -1.665000000    -6.940000000     4.131000000
C    -2.197000000    -7.533000000     2.179000000
H    -3.166000000    -7.959000000     2.426000000
C    -1.846000000    -7.437000000     0.819000000
H    -2.560000000    -7.720000000     0.050000000
C    -0.659000000    -6.854000000     0.383000000
O    -0.346000000    -6.822000000    -0.970000000
C    -0.786000000    -5.801000000    -1.741000000
C    -0.307000000    -5.775000000    -3.067000000
H     0.440000000    -6.531000000    -3.293000000
C    -0.495000000    -4.667000000    -3.919000000
O    -0.009000000    -4.667000000    -5.171000000
C     0.269000000    -3.497000000    -5.782000000
C     1.246000000    -2.645000000    -5.370000000
H     1.784000000    -2.926000000    -4.468000000
C    -0.383000000    -3.225000000    -6.988000000
H    -0.993000000    -4.041000000    -7.366000000
C    -0.052000000    -2.188000000    -7.849000000
H    -0.484000000    -2.174000000    -8.846000000
C     0.937000000    -1.325000000    -7.378000000
H     1.136000000    -0.435000000    -7.968000000
C     1.568000000    -1.510000000    -6.137000000
O     2.614000000    -0.652000000    -5.734000000
C     2.410000000     0.631000000    -5.313000000
C     3.496000000     1.515000000    -5.453000000
H     4.441000000     1.237000000    -5.913000000
C     3.346000000     2.786000000    -4.834000000
O     4.376000000     3.696000000    -4.830000000
C     4.551000000     4.334000000    -3.696000000
C     4.565000000     5.698000000    -3.648000000
H     4.345000000     6.241000000    -4.563000000
C     4.870000000     6.341000000    -2.467000000
H     4.935000000     7.422000000    -2.556000000
C     5.109000000     5.722000000    -1.290000000
H     5.260000000     6.349000000    -0.415000000
C     5.154000000     4.290000000    -1.360000000
C     4.867000000     3.584000000    -2.547000000
H     5.111000000     2.528000000    -2.635000000
C     2.256000000    -1.618000000     1.259000000
H     2.347000000    -2.494000000     1.896000000
C     0.952000000    -1.136000000     1.119000000
H     0.128000000    -1.721000000     1.519000000
C     0.746000000     0.045000000     0.355000000
H    -0.248000000     0.417000000     0.270000000
C     1.757000000     0.576000000    -0.400000000
H     1.512000000     1.438000000    -1.015000000
C     3.064000000     0.101000000    -0.264000000
H     3.859000000     0.500000000    -0.889000000
C     3.334000000    -1.011000000     0.602000000
C     4.706000000    -1.494000000     0.793000000
O     5.572000000    -1.170000000    -0.043000000
O     4.885000000    -2.380000000     1.614000000
O     8.019000000    -0.776000000     1.289000000
H     8.246000000    -1.652000000     1.600000000
H     7.123000000    -0.862000000     0.965000000
O    10.098000000    -3.782000000    -1.095000000
H     9.321000000    -3.914000000    -0.552000000
H     9.930000000    -2.961000000    -1.557000000
O     3.414000000    -4.543000000     1.164000000
H     3.368000000    -4.943000000     2.032000000
H     4.072000000    -3.853000000     1.253000000
O     7.617000000    -0.349000000     4.722000000
H     7.883000000    -0.906000000     5.454000000
H     6.843000000    -0.782000000     4.362000000
O     3.962000000    -5.829000000     3.300000000
H     3.541000000    -6.533000000     3.794000000
H     4.674000000    -5.532000000     3.867000000
O     8.235000000     2.028000000     3.247000000
H     9.187000000     2.063000000     3.339000000
H     7.994000000     1.163000000     3.579000000
O     3.901000000    -3.666000000    -2.783000000
H     3.166000000    -3.751000000    -2.175000000
H     4.659000000    -3.506000000    -2.221000000
O     7.791000000    -4.003000000     0.462000000
H     8.226000000    -3.775000000     1.284000000
H     7.366000000    -4.842000000     0.640000000
O     1.800000000    -3.906000000    -1.129000000
H     1.980000000    -3.177000000    -0.536000000
H     1.340000000    -4.548000000    -0.588000000
O     6.008000000    -6.260000000     1.199000000
H     5.236000000    -6.477000000     0.676000000
H     5.668000000    -5.723000000     1.915000000
O     6.312000000    -2.890000000     3.851000000
H     5.835000000    -2.679000000     3.049000000
H     6.409000000    -3.842000000     3.829000000
O     9.358000000    -0.578000000    -2.112000000
H     8.552000000    -0.408000000    -1.626000000
H     9.533000000     0.240000000    -2.578000000
O     3.901000000    -6.491000000    -0.689000000
H     3.627000000    -5.631000000    -0.370000000
H     3.903000000    -6.404000000    -1.642000000
O     4.737000000    -1.313000000    -3.897000000
H     3.875000000    -0.953000000    -4.101000000
H     4.559000000    -2.203000000    -3.590000000
O     6.393000000     0.137000000    -2.199000000
H     6.045000000    -0.229000000    -3.012000000
H     5.964000000    -0.366000000    -1.507000000
O     7.360000000    -4.072000000    -4.132000000
H     7.802000000    -4.911000000    -4.002000000
H     6.732000000    -4.018000000    -3.411000000
O     7.890000000     2.217000000    -1.573000000
H     7.432000000     1.421000000    -1.842000000
H     8.434000000     2.447000000    -2.326000000
O     6.310000000    -3.043000000    -1.565000000
H     7.107000000    -3.254000000    -1.080000000
H     5.929000000    -2.304000000    -1.089000000
O     9.169000000    -2.858000000     2.659000000
H     9.993000000    -2.453000000     2.389000000
H     9.107000000    -2.672000000     3.596000000
