215
-1441.27379
C     0.418000000    -3.789000000     4.137000000
H    -0.481000000    -4.317000000     3.826000000
C     0.345000000    -2.407000000     4.423000000
C     1.455000000    -1.776000000     4.911000000
H     1.344000000    -0.744000000     5.236000000
C    -0.853000000    -1.580000000     4.064000000
O    -2.027000000    -2.415000000     4.026000000
H    -0.718000000    -1.155000000     3.058000000
O    -1.047000000    -0.461000000     4.950000000
C    -1.448000000     0.714000000     4.390000000
C    -0.432000000     1.656000000     4.236000000
H     0.560000000     1.486000000     4.647000000
C    -0.710000000     2.835000000     3.554000000
O     0.220000000     3.751000000     3.112000000
C    -2.004000000     3.149000000     3.128000000
C    -2.351000000     4.451000000     2.323000000
H    -3.405000000     4.641000000     2.540000000
C    -2.047000000     4.240000000     0.886000000
C    -3.085000000     3.908000000     0.043000000
H    -4.067000000     3.699000000     0.460000000
H    -1.812000000     5.314000000     2.719000000
C    -3.017000000     2.155000000     3.257000000
H    -4.026000000     2.410000000     2.943000000
C    -2.755000000     0.929000000     3.957000000
C    -3.776000000    -0.138000000     4.149000000
H    -4.735000000     0.369000000     4.019000000
H    -3.777000000    -0.705000000     5.082000000
C    -3.734000000    -1.061000000     2.998000000
C    -4.471000000    -0.815000000     1.836000000
H    -5.144000000     0.034000000     1.748000000
C    -2.846000000    -2.149000000     2.971000000
C    -2.704000000    -2.942000000     1.815000000
H    -2.016000000    -3.784000000     1.824000000
C    -3.365000000    -2.563000000     0.679000000
O    -3.036000000    -3.323000000    -0.384000000
C    -2.187000000    -2.677000000    -1.416000000
C    -1.171000000    -3.745000000    -1.950000000
C    -0.590000000    -3.590000000    -3.182000000
H    -0.925000000    -2.848000000    -3.901000000
C    -0.575000000    -4.684000000    -1.118000000
H    -0.856000000    -4.601000000    -0.071000000
O    -3.058000000    -2.254000000    -2.476000000
H    -1.681000000    -1.803000000    -0.979000000
C    -4.277000000    -1.537000000     0.692000000
C    -5.096000000    -1.341000000    -0.574000000
H    -6.145000000    -1.110000000    -0.381000000
H    -5.354000000    -2.292000000    -1.045000000
C    -4.453000000    -0.506000000    -1.612000000
C    -4.745000000     0.876000000    -1.559000000
H    -5.334000000     1.251000000    -0.726000000
C    -3.532000000    -0.978000000    -2.526000000
C    -2.873000000    -0.115000000    -3.377000000
H    -2.189000000    -0.582000000    -4.080000000
C    -3.115000000     1.244000000    -3.323000000
O    -2.464000000     2.061000000    -4.148000000
C    -1.231000000     2.583000000    -3.666000000
C    -0.117000000     2.346000000    -4.700000000
C    -0.153000000     1.400000000    -5.745000000
H    -1.098000000     0.884000000    -5.896000000
C     1.171000000     2.945000000    -4.492000000
H     1.247000000     3.698000000    -3.712000000
O    -1.416000000     3.950000000    -3.229000000
H    -0.934000000     2.064000000    -2.743000000
C    -3.965000000     1.781000000    -2.374000000
C    -4.018000000     3.298000000    -2.205000000
H    -4.950000000     3.637000000    -1.748000000
H    -3.967000000     3.806000000    -3.170000000
C    -2.871000000     3.789000000    -1.350000000
C    -1.676000000     4.177000000    -1.886000000
C    -0.623000000     4.529000000    -1.090000000
H     0.353000000     4.820000000    -1.470000000
C    -0.761000000     4.470000000     0.294000000
O     0.382000000     4.704000000     1.011000000
C     0.753000000     3.536000000     1.796000000
H     0.376000000     2.632000000     1.295000000
C     2.298000000     3.512000000     1.838000000
C     3.064000000     3.137000000     2.965000000
H     2.498000000     2.883000000     3.858000000
C     3.026000000     3.620000000     0.629000000
H     2.522000000     3.911000000    -0.289000000
C     4.415000000     3.525000000     0.565000000
O     5.151000000     3.807000000    -0.617000000
C     5.153000000     3.115000000     1.741000000
H     6.239000000     3.153000000     1.721000000
C     4.451000000     2.940000000     2.933000000
O     5.195000000     2.591000000     4.062000000
C     4.754000000     1.752000000     5.066000000
C     4.513000000     0.391000000     4.738000000
H     4.616000000    -0.012000000     3.734000000
C     4.354000000     2.328000000     6.295000000
H     4.464000000     3.390000000     6.499000000
C     3.779000000     1.482000000     7.225000000
H     3.467000000     1.868000000     8.192000000
C     3.655000000     0.108000000     7.004000000
H     3.347000000    -0.448000000     7.886000000
C     3.983000000    -0.426000000     5.800000000
O     3.782000000    -1.820000000     5.613000000
C     2.684000000    -2.469000000     5.067000000
C     2.751000000    -3.810000000     4.610000000
H     3.676000000    -4.379000000     4.652000000
C     1.692000000    -4.471000000     4.081000000
O     1.892000000    -5.767000000     3.625000000
C     1.038000000    -6.357000000     2.757000000
C     1.235000000    -6.106000000     1.483000000
H     2.136000000    -5.567000000     1.201000000
C    -0.010000000    -7.217000000     3.190000000
H    -0.228000000    -7.335000000     4.248000000
C    -0.927000000    -7.640000000     2.230000000
H    -1.738000000    -8.289000000     2.551000000
C    -0.645000000    -7.449000000     0.808000000
H    -1.377000000    -7.951000000     0.180000000
C     0.504000000    -6.734000000     0.493000000
O     0.884000000    -6.572000000    -0.776000000
C     0.393000000    -5.581000000    -1.587000000
C     0.796000000    -5.526000000    -2.857000000
H     1.532000000    -6.283000000    -3.115000000
C     0.409000000    -4.473000000    -3.678000000
O     0.962000000    -4.287000000    -4.911000000
C     0.418000000    -3.472000000    -5.943000000
C     0.892000000    -2.169000000    -6.102000000
H     1.833000000    -1.959000000    -5.600000000
C    -0.780000000    -3.895000000    -6.599000000
H    -1.339000000    -4.775000000    -6.291000000
C    -1.350000000    -3.048000000    -7.449000000
H    -2.151000000    -3.420000000    -8.083000000
C    -0.861000000    -1.806000000    -7.679000000
H    -1.231000000    -1.235000000    -8.527000000
C     0.233000000    -1.261000000    -6.920000000
O     0.850000000    -0.062000000    -7.354000000
C     0.980000000     1.035000000    -6.498000000
C     2.177000000     1.652000000    -6.232000000
H     3.064000000     1.415000000    -6.814000000
C     2.284000000     2.573000000    -5.192000000
O     3.471000000     3.252000000    -5.093000000
C     3.820000000     4.065000000    -4.041000000
C     3.581000000     5.428000000    -4.159000000
H     3.155000000     5.806000000    -5.085000000
C     3.995000000     6.232000000    -3.130000000
H     3.857000000     7.306000000    -3.228000000
C     4.426000000     5.694000000    -1.934000000
H     4.583000000     6.326000000    -1.064000000
C     4.555000000     4.349000000    -1.741000000
C     4.331000000     3.506000000    -2.857000000
H     4.512000000     2.435000000    -2.894000000
C     2.239000000    -1.067000000     0.655000000
H     2.523000000    -1.805000000     1.401000000
C     0.859000000    -0.931000000     0.287000000
H     0.094000000    -1.631000000     0.610000000
C     0.478000000     0.075000000    -0.551000000
H    -0.590000000     0.211000000    -0.915000000
C     1.388000000     0.938000000    -1.101000000
H     1.110000000     1.806000000    -1.693000000
C     2.724000000     0.774000000    -0.802000000
H     3.465000000     1.467000000    -1.193000000
C     3.147000000    -0.169000000     0.106000000
C     4.598000000    -0.310000000     0.516000000
O     5.552000000     0.220000000    -0.029000000
O     4.938000000    -1.105000000     1.328000000
O     7.859000000     1.252000000     3.215000000
H     6.909000000     1.374000000     3.232000000
H     8.054000000     1.012000000     2.309000000
O     7.686000000     1.665000000     0.460000000
H     7.652000000     2.190000000    -0.340000000
H     6.873000000     1.160000000     0.449000000
O     8.031000000     5.296000000     1.000000000
H     7.783000000     5.020000000     0.117000000
H     8.735000000     5.930000000     0.864000000
O     4.826000000     0.012000000    -5.083000000
H     4.961000000    -0.063000000    -4.138000000
H     5.133000000     0.892000000    -5.300000000
O     5.227000000    -3.749000000     0.538000000
H     4.416000000    -4.201000000     0.770000000
H     5.067000000    -2.834000000     0.768000000
O     8.122000000     2.758000000     5.696000000
H     7.982000000     2.348000000     4.842000000
H     7.681000000     3.604000000     5.630000000
O    10.318000000    -0.637000000     1.914000000
H     9.669000000    -0.869000000     1.249000000
H     9.972000000    -1.009000000     2.726000000
O     7.238000000    -5.963000000     1.002000000
H     6.896000000    -5.070000000     1.043000000
H     8.188000000    -5.853000000     0.950000000
O     5.069000000    -2.897000000    -3.924000000
H     4.238000000    -2.567000000    -3.583000000
H     5.584000000    -2.110000000    -4.105000000
O     7.761000000    -1.413000000     0.745000000
H     7.039000000    -0.840000000     0.490000000
H     7.387000000    -1.987000000     1.414000000
O     2.837000000    -1.828000000    -2.675000000
H     2.877000000    -2.395000000    -1.905000000
H     2.028000000    -1.329000000    -2.563000000
O     9.359000000    -1.092000000    -4.256000000
H     9.396000000    -1.119000000    -3.300000000
H     9.012000000    -0.223000000    -4.458000000
O     6.442000000    -2.446000000     3.024000000
H     5.832000000    -1.912000000     2.515000000
H     5.910000000    -3.170000000     3.353000000
O     8.918000000    -2.088000000     3.926000000
H     8.103000000    -2.337000000     3.489000000
H     8.656000000    -1.417000000     4.556000000
O    10.226000000     2.778000000     1.709000000
H    10.672000000     1.989000000     2.015000000
H     9.400000000     2.460000000     1.343000000
O     6.599000000    -4.811000000    -2.098000000
H     6.031000000    -4.171000000    -2.526000000
H     6.230000000    -4.908000000    -1.220000000
O     7.929000000     2.583000000    -2.292000000
H     8.715000000     2.547000000    -2.837000000
H     7.713000000     3.514000000    -2.245000000
O     6.034000000     0.102000000    -2.518000000
H     5.868000000     0.001000000    -1.581000000
H     6.901000000     0.506000000    -2.566000000
O     8.914000000    -0.699000000    -1.629000000
H     8.486000000    -0.898000000    -0.796000000
H     9.432000000     0.086000000    -1.450000000
