215
-1466.60083
C    -0.062000000    -3.687000000     4.222000000
H    -0.960000000    -4.144000000     3.813000000
C     0.035000000    -2.340000000     4.484000000
C     1.206000000    -1.844000000     5.115000000
H     1.302000000    -0.785000000     5.339000000
C    -1.137000000    -1.401000000     4.105000000
O    -2.480000000    -1.996000000     4.291000000
H    -0.964000000    -1.107000000     3.059000000
O    -1.096000000    -0.253000000     4.936000000
C    -1.389000000     0.991000000     4.382000000
C    -0.270000000     1.751000000     4.017000000
H     0.714000000     1.478000000     4.393000000
C    -0.446000000     2.892000000     3.341000000
O     0.696000000     3.529000000     2.960000000
C    -1.721000000     3.326000000     2.878000000
C    -1.901000000     4.599000000     2.190000000
H    -2.921000000     4.952000000     2.358000000
C    -1.631000000     4.572000000     0.644000000
C    -2.719000000     4.386000000    -0.246000000
H    -3.738000000     4.338000000     0.128000000
H    -1.246000000     5.411000000     2.512000000
C    -2.850000000     2.559000000     3.252000000
H    -3.851000000     2.844000000     2.940000000
C    -2.676000000     1.392000000     4.024000000
C    -3.942000000     0.542000000     4.288000000
H    -4.828000000     1.180000000     4.307000000
H    -3.839000000     0.102000000     5.282000000
C    -4.062000000    -0.521000000     3.209000000
C    -4.819000000    -0.281000000     2.052000000
H    -5.365000000     0.655000000     1.960000000
C    -3.308000000    -1.677000000     3.297000000
C    -3.271000000    -2.530000000     2.183000000
H    -2.619000000    -3.398000000     2.239000000
C    -3.863000000    -2.154000000     0.952000000
O    -3.657000000    -2.926000000    -0.135000000
C    -2.731000000    -2.425000000    -1.133000000
C    -1.853000000    -3.612000000    -1.587000000
C    -1.411000000    -3.669000000    -2.946000000
H    -1.663000000    -2.940000000    -3.712000000
C    -1.303000000    -4.580000000    -0.709000000
H    -1.428000000    -4.466000000     0.365000000
O    -3.517000000    -1.982000000    -2.224000000
H    -2.088000000    -1.595000000    -0.805000000
C    -4.693000000    -1.004000000     0.927000000
C    -5.410000000    -0.679000000    -0.363000000
H    -6.314000000    -0.116000000    -0.122000000
H    -5.695000000    -1.662000000    -0.745000000
C    -4.626000000     0.043000000    -1.492000000
C    -4.642000000     1.497000000    -1.658000000
H    -5.207000000     2.114000000    -0.964000000
C    -3.823000000    -0.623000000    -2.423000000
C    -2.995000000     0.003000000    -3.373000000
H    -2.311000000    -0.567000000    -3.996000000
C    -3.053000000     1.384000000    -3.444000000
O    -2.086000000     1.930000000    -4.297000000
C    -0.884000000     2.349000000    -3.678000000
C     0.459000000     1.963000000    -4.446000000
C     0.433000000     0.761000000    -5.139000000
H    -0.505000000     0.222000000    -5.246000000
C     1.621000000     2.771000000    -4.437000000
H     1.775000000     3.644000000    -3.809000000
O    -0.901000000     3.768000000    -3.412000000
H    -0.628000000     1.835000000    -2.740000000
C    -3.815000000     2.169000000    -2.558000000
C    -3.659000000     3.672000000    -2.414000000
H    -4.594000000     4.100000000    -2.046000000
H    -3.504000000     4.249000000    -3.328000000
C    -2.517000000     4.080000000    -1.551000000
C    -1.191000000     4.135000000    -2.103000000
C    -0.140000000     4.517000000    -1.277000000
H     0.848000000     4.670000000    -1.704000000
C    -0.361000000     4.692000000     0.112000000
O     0.732000000     4.833000000     0.941000000
C     1.153000000     3.535000000     1.578000000
H     0.686000000     2.716000000     1.012000000
C     2.684000000     3.335000000     1.524000000
C     3.247000000     2.449000000     2.374000000
H     2.700000000     1.938000000     3.162000000
C     3.310000000     3.750000000     0.331000000
H     2.842000000     4.367000000    -0.432000000
C     4.611000000     3.403000000     0.131000000
O     5.446000000     3.975000000    -0.737000000
C     5.308000000     2.724000000     1.166000000
H     6.376000000     2.535000000     1.229000000
C     4.589000000     2.063000000     2.131000000
O     5.198000000     1.048000000     2.918000000
C     4.780000000     0.725000000     4.185000000
C     4.177000000    -0.490000000     4.470000000
H     4.065000000    -1.157000000     3.619000000
C     5.039000000     1.554000000     5.290000000
H     5.562000000     2.486000000     5.089000000
C     4.667000000     1.210000000     6.626000000
H     5.029000000     1.725000000     7.513000000
C     4.197000000    -0.046000000     6.871000000
H     4.218000000    -0.483000000     7.867000000
C     3.872000000    -0.917000000     5.777000000
O     3.505000000    -2.213000000     6.003000000
C     2.305000000    -2.675000000     5.413000000
C     2.146000000    -4.015000000     5.076000000
H     3.030000000    -4.627000000     5.235000000
C     0.981000000    -4.522000000     4.484000000
O     0.865000000    -5.852000000     4.378000000
C     0.291000000    -6.391000000     3.287000000
C     0.665000000    -6.161000000     1.924000000
H     1.446000000    -5.421000000     1.771000000
C    -0.836000000    -7.282000000     3.452000000
H    -1.059000000    -7.540000000     4.484000000
C    -1.580000000    -7.898000000     2.406000000
H    -2.351000000    -8.640000000     2.600000000
C    -1.175000000    -7.616000000     1.081000000
H    -1.697000000    -8.057000000     0.236000000
C    -0.125000000    -6.723000000     0.881000000
O     0.313000000    -6.373000000    -0.444000000
C    -0.455000000    -5.573000000    -1.219000000
C    -0.180000000    -5.689000000    -2.598000000
H     0.451000000    -6.461000000    -3.031000000
C    -0.625000000    -4.697000000    -3.446000000
O    -0.244000000    -4.839000000    -4.792000000
C    -0.263000000    -3.785000000    -5.732000000
C     0.693000000    -2.748000000    -5.715000000
H     1.429000000    -2.778000000    -4.916000000
C    -1.288000000    -3.738000000    -6.671000000
H    -2.016000000    -4.544000000    -6.717000000
C    -1.413000000    -2.661000000    -7.618000000
H    -2.192000000    -2.601000000    -8.374000000
C    -0.437000000    -1.671000000    -7.586000000
H    -0.444000000    -0.759000000    -8.177000000
C     0.649000000    -1.798000000    -6.724000000
O     1.558000000    -0.741000000    -6.691000000
C     1.564000000     0.324000000    -5.806000000
C     2.700000000     1.084000000    -5.785000000
H     3.590000000     0.743000000    -6.306000000
C     2.764000000     2.339000000    -5.191000000
O     3.978000000     3.007000000    -5.186000000
C     4.254000000     3.933000000    -4.148000000
C     4.349000000     5.293000000    -4.510000000
H     4.109000000     5.551000000    -5.538000000
C     4.740000000     6.262000000    -3.596000000
H     4.815000000     7.304000000    -3.896000000
C     5.038000000     5.833000000    -2.280000000
H     5.271000000     6.527000000    -1.477000000
C     5.058000000     4.491000000    -1.983000000
C     4.699000000     3.552000000    -2.881000000
H     4.706000000     2.506000000    -2.582000000
C     1.893000000    -1.451000000     0.367000000
H     2.099000000    -2.407000000     0.841000000
C     0.566000000    -1.064000000     0.109000000
H    -0.299000000    -1.633000000     0.439000000
C     0.351000000     0.161000000    -0.550000000
H    -0.650000000     0.643000000    -0.682000000
C     1.437000000     0.958000000    -0.919000000
H     1.253000000     1.957000000    -1.304000000
C     2.729000000     0.487000000    -0.738000000
H     3.520000000     1.055000000    -1.219000000
C     2.975000000    -0.682000000    -0.010000000
C     4.358000000    -1.195000000     0.053000000
O     5.255000000    -0.687000000    -0.705000000
O     4.567000000    -2.161000000     0.785000000
O     6.107000000    -3.848000000     6.208000000
H     5.659000000    -3.978000000     5.373000000
H     5.412000000    -3.899000000     6.864000000
O     7.298000000    -0.614000000     2.021000000
H     7.222000000    -1.089000000     1.193000000
H     6.606000000     0.046000000     1.982000000
O     8.768000000     2.430000000     1.383000000
H     8.838000000     1.501000000     1.162000000
H     8.599000000     2.863000000     0.546000000
O     8.109000000     2.932000000    -2.962000000
H     7.649000000     3.023000000    -3.796000000
H     8.002000000     2.010000000    -2.729000000
O     4.215000000    -4.566000000    -0.443000000
H     3.951000000    -5.060000000     0.333000000
H     4.370000000    -3.678000000    -0.119000000
O     8.436000000    -4.784000000    -0.033000000
H     7.975000000    -5.084000000     0.750000000
H     8.169000000    -3.871000000    -0.133000000
O     3.859000000    -6.346000000     2.262000000
H     4.525000000    -7.033000000     2.292000000
H     3.124000000    -6.703000000     2.760000000
O     9.890000000    -0.346000000    -0.726000000
H     9.910000000    -1.287000000    -0.551000000
H     9.113000000    -0.221000000    -1.270000000
O     6.319000000    -3.098000000    -5.744000000
H     5.944000000    -3.770000000    -5.175000000
H     5.600000000    -2.849000000    -6.326000000
O     7.975000000    -3.261000000     3.321000000
H     7.826000000    -2.406000000     2.918000000
H     7.166000000    -3.747000000     3.157000000
O     4.884000000    -4.353000000    -3.104000000
H     5.803000000    -4.300000000    -2.841000000
H     4.397000000    -4.303000000    -2.282000000
O     9.399000000    -0.479000000     3.932000000
H     9.756000000     0.407000000     3.861000000
H     8.596000000    -0.455000000     3.412000000
O     7.267000000    -0.536000000    -5.185000000
H     6.434000000    -0.552000000    -4.714000000
H     7.482000000    -1.458000000    -5.325000000
O     5.259000000    -3.829000000     3.277000000
H     5.029000000    -3.101000000     2.700000000
H     4.621000000    -4.511000000     3.069000000
O     7.843000000    -4.819000000    -2.632000000
H     8.226000000    -5.124000000    -1.810000000
H     8.474000000    -4.183000000    -2.969000000
O     4.521000000    -7.972000000    -0.977000000
H     5.222000000    -8.238000000    -0.382000000
H     4.644000000    -7.029000000    -1.084000000
O     5.421000000    -1.438000000    -3.445000000
H     5.530000000    -2.388000000    -3.399000000
H     4.942000000    -1.213000000    -2.648000000
O     7.250000000     0.363000000    -2.208000000
H     6.840000000     0.043000000    -3.011000000
H     6.550000000     0.341000000    -1.556000000
O     7.031000000    -2.543000000    -0.472000000
H     6.372000000    -3.235000000    -0.416000000
H     6.529000000    -1.730000000    -0.417000000
