215
-1473.35342
C    -0.881000000    -3.643000000     3.033000000
H    -1.942000000    -3.709000000     2.806000000
C    -0.258000000    -2.430000000     3.317000000
C     1.172000000    -2.318000000     3.172000000
H     1.600000000    -1.327000000     3.300000000
C    -1.111000000    -1.144000000     3.530000000
O    -2.514000000    -1.463000000     3.684000000
H    -0.905000000    -0.625000000     2.583000000
O    -0.737000000    -0.295000000     4.584000000
C    -0.734000000     1.017000000     4.314000000
C     0.543000000     1.567000000     4.213000000
H     1.418000000     0.953000000     4.412000000
C     0.679000000     2.892000000     3.851000000
O     1.912000000     3.417000000     3.726000000
C    -0.470000000     3.673000000     3.436000000
C    -0.335000000     5.100000000     2.827000000
H    -1.345000000     5.513000000     2.870000000
C    -0.026000000     4.924000000     1.297000000
C    -1.128000000     4.996000000     0.430000000
H    -2.066000000     5.295000000     0.892000000
H     0.324000000     5.780000000     3.372000000
C    -1.714000000     3.063000000     3.519000000
H    -2.547000000     3.713000000     3.265000000
C    -1.899000000     1.761000000     4.026000000
C    -3.300000000     1.280000000     4.364000000
H    -3.948000000     2.092000000     4.699000000
H    -3.269000000     0.595000000     5.214000000
C    -3.764000000     0.569000000     3.055000000
C    -4.535000000     1.244000000     2.070000000
H    -4.691000000     2.319000000     2.126000000
C    -3.433000000    -0.771000000     2.861000000
C    -4.009000000    -1.506000000     1.812000000
H    -3.707000000    -2.541000000     1.672000000
C    -4.663000000    -0.838000000     0.787000000
O    -4.847000000    -1.607000000    -0.352000000
C    -3.860000000    -1.391000000    -1.424000000
C    -3.629000000    -2.828000000    -2.082000000
C    -3.225000000    -2.881000000    -3.391000000
H    -3.171000000    -1.976000000    -3.990000000
C    -3.638000000    -4.013000000    -1.376000000
H    -4.040000000    -3.942000000    -0.369000000
O    -4.443000000    -0.414000000    -2.263000000
H    -2.896000000    -1.101000000    -0.982000000
C    -4.906000000     0.568000000     0.880000000
C    -5.506000000     1.345000000    -0.256000000
H    -6.119000000     2.187000000     0.072000000
H    -6.194000000     0.721000000    -0.830000000
C    -4.419000000     1.787000000    -1.194000000
C    -3.947000000     3.085000000    -1.161000000
H    -4.300000000     3.771000000    -0.395000000
C    -3.908000000     0.887000000    -2.143000000
C    -2.912000000     1.307000000    -3.023000000
H    -2.674000000     0.653000000    -3.858000000
C    -2.399000000     2.579000000    -2.894000000
O    -1.265000000     2.941000000    -3.679000000
C     0.078000000     2.802000000    -3.205000000
C     1.117000000     1.954000000    -3.978000000
C     0.628000000     0.894000000    -4.794000000
H    -0.452000000     0.810000000    -4.877000000
C     2.462000000     2.010000000    -3.583000000
H     2.846000000     2.751000000    -2.887000000
O     0.595000000     4.079000000    -2.751000000
H    -0.054000000     2.209000000    -2.288000000
C    -2.899000000     3.485000000    -2.022000000
C    -2.184000000     4.851000000    -1.909000000
H    -2.919000000     5.610000000    -1.634000000
H    -1.734000000     5.168000000    -2.852000000
C    -0.999000000     4.853000000    -0.966000000
C     0.318000000     4.482000000    -1.473000000
C     1.368000000     4.346000000    -0.553000000
H     2.338000000     4.013000000    -0.911000000
C     1.251000000     4.635000000     0.824000000
O     2.344000000     4.474000000     1.689000000
C     2.452000000     3.263000000     2.401000000
H     1.902000000     2.537000000     1.784000000
C     3.876000000     2.716000000     2.419000000
C     4.280000000     1.819000000     3.427000000
H     3.522000000     1.583000000     4.169000000
C     4.675000000     2.895000000     1.351000000
H     4.368000000     3.597000000     0.580000000
C     5.907000000     2.310000000     1.268000000
O     6.749000000     2.443000000     0.152000000
C     6.344000000     1.490000000     2.308000000
H     7.313000000     1.001000000     2.251000000
C     5.562000000     1.293000000     3.406000000
O     5.858000000     0.408000000     4.365000000
C     5.300000000    -0.829000000     4.529000000
C     4.525000000    -1.471000000     3.548000000
H     4.331000000    -0.954000000     2.612000000
C     5.654000000    -1.573000000     5.679000000
H     6.342000000    -1.096000000     6.372000000
C     5.075000000    -2.827000000     5.941000000
H     5.327000000    -3.298000000     6.887000000
C     4.151000000    -3.387000000     5.060000000
H     3.618000000    -4.298000000     5.319000000
C     4.037000000    -2.766000000     3.823000000
O     3.265000000    -3.314000000     2.752000000
C     1.926000000    -3.410000000     2.770000000
C     1.337000000    -4.645000000     2.598000000
H     2.035000000    -5.440000000     2.349000000
C    -0.039000000    -4.679000000     2.626000000
O    -0.501000000    -5.943000000     2.500000000
C    -1.742000000    -6.241000000     1.936000000
C    -2.062000000    -6.131000000     0.589000000
H    -1.335000000    -5.633000000    -0.048000000
C    -2.736000000    -6.717000000     2.824000000
H    -2.463000000    -6.784000000     3.874000000
C    -4.014000000    -7.055000000     2.365000000
H    -4.814000000    -7.313000000     3.055000000
C    -4.315000000    -6.934000000     1.016000000
H    -5.317000000    -7.131000000     0.642000000
C    -3.289000000    -6.518000000     0.127000000
O    -3.520000000    -6.443000000    -1.243000000
C    -3.323000000    -5.295000000    -1.940000000
C    -2.881000000    -5.306000000    -3.270000000
H    -2.670000000    -6.270000000    -3.725000000
C    -2.797000000    -4.099000000    -4.023000000
O    -2.381000000    -4.096000000    -5.339000000
C    -2.006000000    -2.933000000    -5.920000000
C    -0.697000000    -2.517000000    -5.697000000
H    -0.053000000    -3.242000000    -5.205000000
C    -2.818000000    -2.343000000    -6.895000000
H    -3.789000000    -2.739000000    -7.182000000
C    -2.471000000    -1.108000000    -7.451000000
H    -3.118000000    -0.629000000    -8.182000000
C    -1.175000000    -0.565000000    -7.071000000
H    -0.889000000     0.368000000    -7.549000000
C    -0.294000000    -1.292000000    -6.315000000
O     1.058000000    -0.924000000    -6.270000000
C     1.516000000     0.061000000    -5.460000000
C     2.861000000     0.259000000    -5.255000000
H     3.628000000    -0.350000000    -5.725000000
C     3.332000000     1.183000000    -4.314000000
O     4.682000000     1.086000000    -3.962000000
C     5.215000000     2.090000000    -3.198000000
C     5.738000000     3.249000000    -3.800000000
H     5.630000000     3.322000000    -4.879000000
C     6.448000000     4.183000000    -3.061000000
H     6.769000000     5.107000000    -3.534000000
C     6.805000000     3.876000000    -1.706000000
H     7.335000000     4.632000000    -1.133000000
C     6.378000000     2.718000000    -1.083000000
C     5.600000000     1.872000000    -1.894000000
H     5.217000000     0.916000000    -1.546000000
C     0.840000000    -2.295000000    -0.254000000
H     0.989000000    -3.350000000    -0.468000000
C    -0.428000000    -1.840000000     0.053000000
H    -1.214000000    -2.588000000     0.114000000
C    -0.695000000    -0.499000000     0.210000000
H    -1.730000000    -0.102000000     0.162000000
C     0.338000000     0.417000000     0.051000000
H     0.084000000     1.472000000     0.117000000
C     1.660000000    -0.055000000    -0.069000000
H     2.475000000     0.658000000    -0.163000000
C     1.892000000    -1.374000000    -0.373000000
C     3.321000000    -1.795000000    -0.665000000
O     4.256000000    -0.995000000    -0.541000000
O     3.553000000    -3.008000000    -0.809000000
O     6.658000000    -0.573000000     0.112000000
H     7.141000000    -0.485000000    -0.710000000
H     5.755000000    -0.739000000    -0.157000000
O     9.048000000    -3.893000000     1.397000000
H     8.703000000    -4.375000000     0.645000000
H     8.541000000    -4.218000000     2.142000000
O     8.635000000    -0.260000000    -1.921000000
H     9.323000000    -0.916000000    -2.028000000
H     8.650000000     0.239000000    -2.738000000
O     2.300000000    -5.399000000    -0.743000000
H     2.682000000    -4.522000000    -0.703000000
H     2.671000000    -5.856000000     0.012000000
O     3.245000000    -6.805000000    -2.889000000
H     3.318000000    -6.296000000    -3.696000000
H     2.962000000    -6.171000000    -2.230000000
O     3.722000000    -3.501000000    -6.174000000
H     3.166000000    -4.277000000    -6.237000000
H     3.669000000    -3.242000000    -5.254000000
O     5.138000000    -7.736000000    -0.880000000
H     4.408000000    -7.743000000    -1.499000000
H     4.788000000    -7.306000000    -0.100000000
O     3.415000000    -3.645000000    -3.437000000
H     2.484000000    -3.429000000    -3.498000000
H     3.635000000    -3.497000000    -2.517000000
O     8.975000000    -4.873000000    -3.082000000
H     9.499000000    -5.201000000    -3.813000000
H     8.148000000    -4.602000000    -3.483000000
O     0.435000000    -6.856000000    -2.011000000
H     0.823000000    -6.113000000    -1.548000000
H     0.824000000    -7.626000000    -1.596000000
O     6.959000000    -3.895000000     3.233000000
H     6.428000000    -3.616000000     2.487000000
H     6.390000000    -4.489000000     3.723000000
O     7.463000000    -0.879000000    -5.023000000
H     7.959000000    -0.107000000    -4.753000000
H     7.051000000    -1.193000000    -4.218000000
O     7.734000000    -4.977000000    -0.638000000
H     6.830000000    -4.736000000    -0.439000000
H     7.944000000    -4.486000000    -1.432000000
O     4.112000000    -6.194000000     1.200000000
H     4.495000000    -5.335000000     1.376000000
H     3.938000000    -6.561000000     2.067000000
O     5.839000000    -3.113000000     0.832000000
H     6.308000000    -2.279000000     0.806000000
H     5.046000000    -2.958000000     0.319000000
O     6.534000000    -4.185000000    -3.945000000
H     6.336000000    -4.077000000    -4.875000000
H     6.052000000    -3.480000000    -3.514000000
O     5.397000000    -1.550000000    -2.835000000
H     5.011000000    -1.501000000    -1.961000000
H     5.219000000    -0.693000000    -3.224000000
O     6.630000000    -6.964000000    -3.717000000
H     6.674000000    -6.013000000    -3.614000000
H     5.702000000    -7.173000000    -3.610000000
O     8.569000000    -1.083000000     2.004000000
H     8.405000000    -1.970000000     2.325000000
H     7.887000000    -0.936000000     1.348000000
