215
-1467.98374
C     2.639000000     3.374000000    -3.211000000
H     2.411000000     2.551000000    -3.883000000
C     3.379000000     3.126000000    -2.055000000
C     3.583000000     4.182000000    -1.123000000
H     4.104000000     3.918000000    -0.206000000
C     3.823000000     1.703000000    -1.666000000
O     4.273000000     0.951000000    -2.785000000
H     3.004000000     1.142000000    -1.193000000
O     4.808000000     1.728000000    -0.634000000
C     4.551000000     0.935000000     0.455000000
C     3.859000000     1.517000000     1.546000000
H     3.583000000     2.568000000     1.583000000
C     3.469000000     0.621000000     2.565000000
O     2.620000000     1.014000000     3.603000000
C     3.887000000    -0.738000000     2.489000000
C     3.651000000    -1.530000000     3.701000000
H     4.421000000    -2.291000000     3.844000000
C     2.292000000    -2.301000000     3.680000000
C     2.131000000    -3.566000000     3.045000000
H     2.995000000    -4.096000000     2.651000000
H     3.684000000    -0.912000000     4.601000000
C     4.536000000    -1.252000000     1.351000000
H     4.866000000    -2.288000000     1.324000000
C     4.892000000    -0.428000000     0.347000000
C     5.556000000    -1.015000000    -0.931000000
H     6.222000000    -1.876000000    -0.850000000
H     6.221000000    -0.234000000    -1.306000000
C     4.462000000    -1.349000000    -1.943000000
C     3.971000000    -2.664000000    -2.049000000
H     4.406000000    -3.384000000    -1.360000000
C     3.825000000    -0.367000000    -2.771000000
C     2.835000000    -0.733000000    -3.703000000
H     2.414000000     0.043000000    -4.337000000
C     2.340000000    -2.029000000    -3.693000000
O     1.184000000    -2.241000000    -4.346000000
C     0.028000000    -2.188000000    -3.460000000
C    -1.054000000    -1.226000000    -4.039000000
C    -2.434000000    -1.442000000    -3.786000000
H    -2.656000000    -2.257000000    -3.102000000
C    -0.780000000    -0.182000000    -4.962000000
H     0.224000000     0.010000000    -5.331000000
O    -0.449000000    -3.566000000    -3.252000000
H     0.269000000    -1.866000000    -2.437000000
C     2.914000000    -3.021000000    -2.868000000
C     2.370000000    -4.410000000    -2.806000000
H     3.035000000    -5.196000000    -2.440000000
H     1.995000000    -4.685000000    -3.794000000
C     1.195000000    -4.503000000    -1.740000000
C     1.494000000    -4.991000000    -0.422000000
H     2.532000000    -5.230000000    -0.203000000
C    -0.095000000    -4.206000000    -2.077000000
C    -1.055000000    -4.291000000    -1.145000000
H    -2.037000000    -3.983000000    -1.494000000
C    -0.789000000    -4.681000000     0.183000000
O    -1.897000000    -4.573000000     1.008000000
C    -2.018000000    -3.579000000     1.991000000
C    -3.520000000    -3.218000000     2.120000000
C    -4.349000000    -3.130000000     1.043000000
H    -4.085000000    -3.500000000     0.055000000
C    -3.895000000    -2.695000000     3.350000000
H    -3.195000000    -2.486000000     4.155000000
O    -1.456000000    -4.031000000     3.238000000
H    -1.465000000    -2.730000000     1.564000000
C     0.525000000    -5.078000000     0.591000000
C     0.817000000    -5.480000000     2.057000000
H     1.774000000    -6.006000000     2.076000000
H     0.039000000    -6.130000000     2.461000000
C     0.920000000    -4.244000000     2.962000000
C    -0.144000000    -3.582000000     3.471000000
C    -0.054000000    -2.344000000     4.057000000
H    -0.952000000    -1.812000000     4.362000000
C     1.139000000    -1.704000000     4.198000000
O     1.030000000    -0.382000000     4.555000000
C     1.215000000     0.627000000     3.487000000
H     1.031000000     0.191000000     2.493000000
C     0.324000000     1.836000000     3.581000000
C     0.771000000     3.112000000     3.227000000
H     1.825000000     3.379000000     3.209000000
C    -1.006000000     1.539000000     3.968000000
H    -1.319000000     0.551000000     4.297000000
C    -1.853000000     2.586000000     3.926000000
O    -3.171000000     2.471000000     4.352000000
C    -1.460000000     3.870000000     3.577000000
H    -2.197000000     4.666000000     3.629000000
C    -0.186000000     4.160000000     3.235000000
O     0.097000000     5.465000000     3.010000000
C     1.313000000     6.017000000     2.529000000
C     1.731000000     5.762000000     1.256000000
H     1.082000000     5.226000000     0.569000000
C     2.074000000     6.863000000     3.425000000
H     1.797000000     7.148000000     4.437000000
C     3.118000000     7.621000000     3.003000000
H     3.651000000     8.282000000     3.682000000
C     3.484000000     7.387000000     1.640000000
H     4.247000000     8.047000000     1.233000000
C     2.867000000     6.491000000     0.798000000
O     3.228000000     6.479000000    -0.580000000
C     3.072000000     5.450000000    -1.397000000
C     2.281000000     5.750000000    -2.519000000
H     1.811000000     6.720000000    -2.661000000
C     2.028000000     4.632000000    -3.345000000
O     1.109000000     4.909000000    -4.333000000
C     0.862000000     4.154000000    -5.471000000
C    -0.170000000     3.226000000    -5.399000000
H    -0.741000000     3.130000000    -4.479000000
C     1.641000000     4.265000000    -6.608000000
H     2.433000000     4.996000000    -6.750000000
C     1.452000000     3.327000000    -7.611000000
H     1.995000000     3.353000000    -8.553000000
C     0.521000000     2.296000000    -7.468000000
H     0.242000000     1.632000000    -8.282000000
C    -0.403000000     2.339000000    -6.416000000
O    -1.539000000     1.583000000    -6.473000000
C    -1.786000000     0.677000000    -5.504000000
C    -3.062000000     0.553000000    -5.006000000
H    -3.809000000     1.271000000    -5.335000000
C    -3.379000000    -0.455000000    -4.062000000
O    -4.730000000    -0.520000000    -3.691000000
C    -5.282000000    -1.628000000    -3.063000000
C    -5.576000000    -1.523000000    -1.715000000
H    -5.266000000    -0.676000000    -1.109000000
C    -5.693000000    -2.748000000    -3.817000000
H    -5.483000000    -2.765000000    -4.883000000
C    -6.312000000    -3.840000000    -3.183000000
H    -6.686000000    -4.711000000    -3.714000000
C    -6.601000000    -3.779000000    -1.825000000
H    -7.161000000    -4.580000000    -1.348000000
C    -6.208000000    -2.652000000    -1.140000000
O    -6.517000000    -2.632000000     0.190000000
C    -5.641000000    -2.755000000     1.250000000
C    -6.108000000    -2.284000000     2.512000000
H    -7.140000000    -1.950000000     2.570000000
C    -5.220000000    -2.277000000     3.582000000
O    -5.508000000    -1.836000000     4.810000000
C    -4.896000000    -0.653000000     5.316000000
C    -4.692000000    -0.611000000     6.699000000
H    -5.173000000    -1.386000000     7.291000000
C    -3.967000000     0.449000000     7.253000000
H    -3.822000000     0.529000000     8.328000000
C    -3.342000000     1.399000000     6.478000000
H    -2.641000000     2.149000000     6.835000000
C    -3.642000000     1.460000000     5.140000000
C    -4.311000000     0.408000000     4.527000000
H    -4.453000000     0.336000000     3.452000000
C    -2.211000000     0.592000000     0.056000000
H    -3.283000000     0.643000000     0.230000000
C    -1.664000000    -0.662000000    -0.085000000
H    -2.255000000    -1.571000000    -0.166000000
C    -0.294000000    -0.828000000    -0.180000000
H     0.212000000    -1.847000000    -0.251000000
C     0.528000000     0.304000000    -0.211000000
H     1.607000000     0.198000000    -0.293000000
C     0.043000000     1.569000000    -0.132000000
H     0.722000000     2.413000000    -0.221000000
C    -1.352000000     1.741000000     0.028000000
C    -1.965000000     3.136000000     0.089000000
O    -1.253000000     4.133000000     0.198000000
O    -3.153000000     3.229000000    -0.038000000
O    -6.076000000     2.603000000    -4.550000000
H    -6.106000000     2.837000000    -5.478000000
H    -5.465000000     3.230000000    -4.164000000
O    -1.396000000     4.928000000    -2.326000000
H    -0.524000000     4.803000000    -2.700000000
H    -1.283000000     4.756000000    -1.391000000
O    -2.282000000     5.424000000     6.505000000
H    -2.136000000     5.946000000     5.716000000
H    -3.060000000     4.903000000     6.306000000
O    -5.074000000     7.769000000     4.299000000
H    -4.325000000     7.502000000     4.833000000
H    -4.784000000     7.632000000     3.397000000
O    -6.476000000     7.447000000    -2.769000000
H    -6.144000000     6.881000000    -3.465000000
H    -6.450000000     6.902000000    -1.983000000
O    -4.219000000     5.749000000    -0.612000000
H    -3.847000000     4.867000000    -0.613000000
H    -3.525000000     6.301000000    -0.251000000
O    -1.583000000     6.716000000     0.987000000
H    -0.880000000     7.015000000     1.563000000
H    -1.392000000     5.790000000     0.837000000
O    -7.636000000     2.189000000    -0.351000000
H    -6.784000000     2.196000000    -0.786000000
H    -8.133000000     1.511000000    -0.808000000
O    -5.161000000     5.905000000    -4.598000000
H    -4.815000000     5.245000000    -3.996000000
H    -4.876000000     5.613000000    -5.463000000
O    -8.010000000     3.926000000    -3.259000000
H    -7.462000000     3.291000000    -3.720000000
H    -7.612000000     4.000000000    -2.392000000
O    -4.688000000     3.326000000     2.070000000
H    -4.209000000     3.435000000     1.248000000
H    -4.046000000     2.953000000     2.673000000
O    -6.633000000     1.343000000     2.014000000
H    -6.901000000     1.428000000     1.098000000
H    -5.991000000     2.041000000     2.141000000
O    -6.883000000     5.359000000    -0.849000000
H    -5.966000000     5.397000000    -0.578000000
H    -7.369000000     5.243000000    -0.033000000
O    -1.928000000     7.076000000     4.356000000
H    -2.307000000     7.139000000     3.479000000
H    -0.986000000     7.180000000     4.218000000
O    -4.827000000     8.593000000    -0.359000000
H    -4.673000000     7.766000000    -0.815000000
H    -4.926000000     8.345000000     0.561000000
O    -5.153000000     1.759000000    -1.936000000
H    -4.677000000     1.935000000    -2.747000000
H    -4.742000000     2.332000000    -1.288000000
O    -3.512000000     7.948000000     2.178000000
H    -2.751000000     7.706000000     1.651000000
H    -3.507000000     8.905000000     2.180000000
O    -6.353000000     4.171000000     4.128000000
H    -6.340000000     3.415000000     4.715000000
H    -5.556000000     4.082000000     3.606000000
O    -3.900000000     3.856000000    -3.678000000
H    -3.147000000     4.033000000    -3.114000000
H    -3.575000000     4.003000000    -4.566000000
