215
-1455.35162
C    -0.529000000    -4.128000000     3.424000000
H    -1.580000000    -4.343000000     3.244000000
C    -0.118000000    -2.832000000     3.640000000
C     1.248000000    -2.577000000     3.846000000
H     1.689000000    -1.588000000     3.945000000
C    -1.223000000    -1.712000000     3.673000000
O    -2.601000000    -2.246000000     3.553000000
H    -1.055000000    -1.177000000     2.727000000
O    -1.175000000    -0.871000000     4.817000000
C    -1.220000000     0.433000000     4.533000000
C     0.000000000     1.157000000     4.329000000
H     0.887000000     0.540000000     4.443000000
C     0.109000000     2.450000000     3.940000000
O     1.385000000     2.953000000     3.815000000
C    -1.066000000     3.058000000     3.507000000
C    -1.136000000     4.505000000     3.041000000
H    -2.114000000     4.933000000     3.271000000
C    -0.867000000     4.507000000     1.580000000
C    -1.907000000     4.579000000     0.690000000
H    -2.899000000     4.782000000     1.085000000
H    -0.428000000     5.221000000     3.464000000
C    -2.299000000     2.407000000     3.487000000
H    -3.184000000     2.959000000     3.184000000
C    -2.378000000     1.160000000     4.117000000
C    -3.747000000     0.406000000     4.080000000
H    -4.499000000     1.186000000     4.217000000
H    -3.859000000    -0.292000000     4.913000000
C    -3.961000000    -0.368000000     2.835000000
C    -4.723000000     0.213000000     1.839000000
H    -5.206000000     1.152000000     2.096000000
C    -3.392000000    -1.603000000     2.632000000
C    -3.720000000    -2.274000000     1.453000000
H    -3.480000000    -3.330000000     1.365000000
C    -4.404000000    -1.667000000     0.440000000
O    -4.380000000    -2.293000000    -0.777000000
C    -3.380000000    -1.825000000    -1.757000000
C    -2.722000000    -3.011000000    -2.517000000
C    -2.472000000    -2.954000000    -3.887000000
H    -2.700000000    -2.017000000    -4.388000000
C    -2.323000000    -4.198000000    -1.850000000
H    -2.328000000    -4.212000000    -0.763000000
O    -3.925000000    -0.941000000    -2.733000000
H    -2.594000000    -1.320000000    -1.175000000
C    -4.882000000    -0.367000000     0.587000000
C    -5.607000000     0.331000000    -0.564000000
H    -6.346000000     1.077000000    -0.265000000
H    -6.056000000    -0.478000000    -1.143000000
C    -4.535000000     1.010000000    -1.443000000
C    -4.375000000     2.418000000    -1.328000000
H    -4.848000000     2.935000000    -0.497000000
C    -3.801000000     0.363000000    -2.468000000
C    -2.943000000     1.046000000    -3.270000000
H    -2.410000000     0.559000000    -4.082000000
C    -2.632000000     2.350000000    -2.985000000
O    -1.544000000     2.833000000    -3.665000000
C    -0.257000000     2.943000000    -2.986000000
C     0.911000000     2.450000000    -3.867000000
C     0.731000000     1.330000000    -4.744000000
H    -0.247000000     0.902000000    -4.948000000
C     2.222000000     2.923000000    -3.694000000
H     2.416000000     3.714000000    -2.974000000
O    -0.157000000     4.273000000    -2.486000000
H    -0.309000000     2.251000000    -2.132000000
C    -3.332000000     3.144000000    -2.051000000
C    -2.947000000     4.494000000    -1.632000000
H    -3.702000000     5.090000000    -1.115000000
H    -2.748000000     5.085000000    -2.529000000
C    -1.739000000     4.524000000    -0.710000000
C    -0.423000000     4.426000000    -1.171000000
C     0.704000000     4.381000000    -0.308000000
H     1.728000000     4.371000000    -0.673000000
C     0.440000000     4.431000000     1.084000000
O     1.563000000     4.268000000     1.913000000
C     1.891000000     2.933000000     2.457000000
H     1.511000000     2.031000000     1.956000000
C     3.360000000     2.645000000     2.390000000
C     4.010000000     1.872000000     3.348000000
H     3.365000000     1.637000000     4.192000000
C     4.248000000     3.132000000     1.406000000
H     3.839000000     3.858000000     0.708000000
C     5.602000000     2.775000000     1.298000000
O     6.399000000     3.172000000     0.205000000
C     6.163000000     1.935000000     2.209000000
H     7.107000000     1.413000000     2.073000000
C     5.391000000     1.535000000     3.309000000
O     5.967000000     0.717000000     4.249000000
C     5.162000000    -0.250000000     4.727000000
C     4.683000000    -1.346000000     3.901000000
H     4.901000000    -1.385000000     2.837000000
C     4.866000000    -0.195000000     6.103000000
H     5.202000000     0.595000000     6.771000000
C     3.946000000    -1.130000000     6.660000000
H     3.618000000    -1.009000000     7.689000000
C     3.673000000    -2.310000000     5.888000000
H     3.234000000    -3.129000000     6.451000000
C     3.959000000    -2.400000000     4.489000000
O     3.468000000    -3.419000000     3.772000000
C     2.138000000    -3.683000000     3.681000000
C     1.734000000    -4.953000000     3.376000000
H     2.429000000    -5.773000000     3.216000000
C     0.367000000    -5.152000000     3.257000000
O    -0.134000000    -6.436000000     2.988000000
C    -0.935000000    -6.631000000     1.907000000
C    -0.618000000    -6.114000000     0.687000000
H     0.306000000    -5.566000000     0.516000000
C    -2.166000000    -7.337000000     2.067000000
H    -2.411000000    -7.683000000     3.068000000
C    -2.982000000    -7.566000000     0.978000000
H    -3.916000000    -8.103000000     1.121000000
C    -2.568000000    -7.183000000    -0.305000000
H    -3.230000000    -7.419000000    -1.135000000
C    -1.373000000    -6.418000000    -0.458000000
O    -0.885000000    -6.080000000    -1.759000000
C    -1.599000000    -5.201000000    -2.504000000
C    -1.488000000    -5.132000000    -3.899000000
H    -0.840000000    -5.839000000    -4.410000000
C    -1.920000000    -4.011000000    -4.573000000
O    -1.519000000    -3.939000000    -5.882000000
C    -1.092000000    -2.799000000    -6.471000000
C     0.086000000    -2.134000000    -6.059000000
H     0.727000000    -2.596000000    -5.313000000
C    -1.904000000    -2.188000000    -7.403000000
H    -2.851000000    -2.587000000    -7.756000000
C    -1.660000000    -0.909000000    -7.931000000
H    -2.345000000    -0.358000000    -8.571000000
C    -0.500000000    -0.236000000    -7.447000000
H    -0.282000000     0.765000000    -7.810000000
C     0.378000000    -0.897000000    -6.579000000
O     1.620000000    -0.367000000    -6.190000000
C     1.773000000     0.728000000    -5.391000000
C     3.096000000     1.180000000    -5.138000000
H     3.989000000     0.755000000    -5.590000000
C     3.285000000     2.304000000    -4.385000000
O     4.552000000     2.701000000    -4.091000000
C     4.972000000     3.475000000    -3.068000000
C     4.761000000     4.855000000    -3.129000000
H     4.207000000     5.267000000    -3.968000000
C     5.111000000     5.710000000    -2.029000000
H     4.817000000     6.756000000    -2.034000000
C     5.669000000     5.093000000    -0.915000000
H     5.881000000     5.759000000    -0.083000000
C     5.905000000     3.745000000    -0.956000000
C     5.562000000     2.882000000    -1.959000000
H     5.721000000     1.807000000    -2.001000000
C     0.749000000    -2.005000000     0.097000000
H     0.611000000    -3.072000000     0.254000000
C    -0.489000000    -1.308000000     0.356000000
H    -1.425000000    -1.842000000     0.499000000
C    -0.439000000     0.079000000     0.255000000
H    -1.392000000     0.675000000     0.349000000
C     0.801000000     0.707000000    -0.028000000
H     0.842000000     1.790000000    -0.110000000
C     2.024000000     0.061000000    -0.185000000
H     2.885000000     0.701000000    -0.356000000
C     1.986000000    -1.351000000    -0.095000000
C     3.182000000    -2.193000000    -0.225000000
O     4.259000000    -1.624000000    -0.101000000
O     3.180000000    -3.324000000    -0.576000000
O     5.492000000    -5.382000000     5.264000000
H     5.093000000    -5.017000000     6.054000000
H     4.898000000    -5.133000000     4.557000000
O     7.142000000    -1.176000000     0.696000000
H     7.279000000    -1.847000000     0.028000000
H     6.202000000    -1.202000000     0.873000000
O     8.150000000    -0.825000000    -2.328000000
H     8.339000000    -0.283000000    -1.562000000
H     7.221000000    -0.676000000    -2.503000000
O     6.692000000    -3.762000000    -4.045000000
H     7.345000000    -3.066000000    -4.117000000
H     5.861000000    -3.331000000    -4.244000000
O     2.773000000    -5.740000000     0.381000000
H     2.881000000    -4.846000000     0.056000000
H     3.623000000    -5.960000000     0.762000000
O     3.685000000    -8.495000000    -1.840000000
H     2.908000000    -7.946000000    -1.736000000
H     4.170000000    -8.382000000    -1.023000000
O     1.749000000    -8.392000000     2.543000000
H     1.410000000    -8.018000000     1.730000000
H     2.419000000    -9.014000000     2.260000000
O     3.356000000    -5.168000000    -5.088000000
H     2.773000000    -5.421000000    -5.805000000
H     2.767000000    -4.969000000    -4.360000000
O     5.410000000    -8.761000000     0.349000000
H     5.453000000    -8.082000000     1.023000000
H     4.855000000    -9.441000000     0.729000000
O     2.090000000    -4.338000000    -2.649000000
H     1.281000000    -4.641000000    -2.239000000
H     2.563000000    -3.892000000    -1.946000000
O     5.241000000    -4.080000000     1.779000000
H     4.706000000    -3.918000000     1.002000000
H     6.085000000    -3.675000000     1.576000000
O     4.447000000    -2.678000000    -4.576000000
H     4.410000000    -2.209000000    -5.409000000
H     3.970000000    -3.492000000    -4.736000000
O     9.085000000    -2.320000000    -4.302000000
H     8.815000000    -2.104000000    -3.410000000
H     9.816000000    -1.727000000    -4.481000000
O     5.102000000    -6.725000000     2.138000000
H     5.090000000    -5.776000000     2.011000000
H     5.864000000    -6.882000000     2.696000000
O     6.482000000    -3.274000000    -1.014000000
H     6.574000000    -3.377000000    -1.961000000
H     5.657000000    -2.801000000    -0.903000000
O     6.595000000    -6.195000000    -2.306000000
H     6.590000000    -5.674000000    -3.109000000
H     6.309000000    -5.587000000    -1.624000000
O     5.411000000    -0.648000000    -2.419000000
H     5.145000000    -1.282000000    -3.085000000
H     4.907000000    -0.890000000    -1.642000000
O     8.717000000    -0.782000000     3.029000000
H     8.202000000    -0.991000000     2.250000000
H     9.318000000    -1.521000000     3.125000000
O     8.835000000     1.594000000    -0.603000000
H     9.367000000     2.388000000    -0.552000000
H     7.964000000     1.870000000    -0.319000000
