215
-1473.83577
C    -1.845000000    -4.236000000     3.081000000
H    -2.877000000    -4.273000000     3.421000000
C    -1.055000000    -3.073000000     3.215000000
C     0.223000000    -3.044000000     2.714000000
H     0.845000000    -2.152000000     2.724000000
C    -1.634000000    -1.753000000     3.696000000
O    -3.057000000    -1.781000000     3.846000000
H    -1.431000000    -1.156000000     2.795000000
O    -0.953000000    -1.028000000     4.758000000
C    -0.761000000     0.371000000     4.598000000
C     0.560000000     0.749000000     4.601000000
H     1.285000000    -0.060000000     4.650000000
C     0.914000000     2.099000000     4.464000000
O     2.275000000     2.248000000     4.260000000
C    -0.116000000     3.097000000     4.280000000
C     0.314000000     4.473000000     3.916000000
H    -0.545000000     5.093000000     4.183000000
C     0.476000000     4.652000000     2.401000000
C    -0.542000000     4.931000000     1.512000000
H    -1.545000000     5.021000000     1.922000000
H     1.211000000     4.809000000     4.441000000
C    -1.399000000     2.681000000     4.424000000
H    -2.191000000     3.405000000     4.250000000
C    -1.738000000     1.340000000     4.507000000
C    -3.210000000     0.964000000     4.568000000
H    -3.878000000     1.694000000     5.030000000
H    -3.336000000     0.232000000     5.368000000
C    -3.748000000     0.405000000     3.289000000
C    -4.289000000     1.260000000     2.348000000
H    -4.308000000     2.298000000     2.668000000
C    -3.679000000    -0.922000000     2.930000000
C    -4.095000000    -1.419000000     1.677000000
H    -4.116000000    -2.476000000     1.423000000
C    -4.610000000    -0.547000000     0.745000000
O    -4.871000000    -1.044000000    -0.476000000
C    -3.922000000    -0.720000000    -1.448000000
C    -3.641000000    -1.827000000    -2.483000000
C    -3.266000000    -1.542000000    -3.806000000
H    -3.186000000    -0.529000000    -4.193000000
C    -3.579000000    -3.109000000    -2.007000000
H    -3.914000000    -3.414000000    -1.019000000
O    -4.327000000     0.474000000    -2.156000000
H    -2.954000000    -0.584000000    -0.942000000
C    -4.717000000     0.851000000     1.094000000
C    -5.298000000     1.888000000     0.137000000
H    -5.722000000     2.744000000     0.666000000
H    -6.100000000     1.499000000    -0.495000000
C    -4.235000000     2.468000000    -0.769000000
C    -3.584000000     3.734000000    -0.595000000
H    -3.895000000     4.411000000     0.197000000
C    -3.751000000     1.661000000    -1.798000000
C    -2.575000000     1.930000000    -2.414000000
H    -2.182000000     1.227000000    -3.143000000
C    -1.903000000     3.096000000    -2.173000000
O    -0.784000000     3.265000000    -2.904000000
C     0.484000000     2.901000000    -2.341000000
C     1.403000000     2.286000000    -3.344000000
C     0.904000000     1.498000000    -4.375000000
H    -0.165000000     1.338000000    -4.486000000
C     2.798000000     2.425000000    -3.129000000
H     3.149000000     2.866000000    -2.199000000
O     1.046000000     4.122000000    -1.721000000
H     0.396000000     2.103000000    -1.589000000
C    -2.396000000     4.021000000    -1.265000000
C    -1.628000000     5.194000000    -0.795000000
H    -2.303000000     5.921000000    -0.338000000
H    -1.206000000     5.803000000    -1.597000000
C    -0.452000000     4.833000000     0.149000000
C     0.789000000     4.453000000    -0.390000000
C     1.869000000     4.245000000     0.403000000
H     2.816000000     3.928000000    -0.026000000
C     1.672000000     4.309000000     1.803000000
O     2.748000000     3.848000000     2.499000000
C     2.703000000     2.446000000     2.875000000
H     2.040000000     1.970000000     2.138000000
C     4.039000000     1.739000000     2.553000000
C     4.252000000     0.451000000     3.082000000
H     3.541000000    -0.049000000     3.735000000
C     5.014000000     2.316000000     1.740000000
H     4.934000000     3.331000000     1.358000000
C     6.057000000     1.509000000     1.361000000
O     6.959000000     1.790000000     0.328000000
C     6.278000000     0.164000000     1.835000000
H     7.191000000    -0.387000000     1.626000000
C     5.458000000    -0.266000000     2.813000000
O     5.724000000    -1.509000000     3.223000000
C     4.788000000    -2.527000000     3.496000000
C     3.850000000    -2.857000000     2.544000000
H     3.824000000    -2.348000000     1.583000000
C     4.753000000    -3.159000000     4.683000000
H     5.525000000    -2.856000000     5.386000000
C     3.852000000    -4.126000000     5.033000000
H     3.697000000    -4.573000000     6.011000000
C     3.064000000    -4.701000000     4.038000000
H     2.442000000    -5.564000000     4.260000000
C     3.053000000    -4.000000000     2.816000000
O     2.126000000    -4.215000000     1.775000000
C     0.767000000    -4.186000000     2.104000000
C    -0.001000000    -5.339000000     1.917000000
H     0.441000000    -6.155000000     1.351000000
C    -1.293000000    -5.305000000     2.360000000
O    -2.058000000    -6.428000000     2.097000000
C    -2.906000000    -6.581000000     1.007000000
C    -2.709000000    -5.869000000    -0.225000000
H    -1.844000000    -5.223000000    -0.356000000
C    -3.942000000    -7.486000000     1.138000000
H    -4.177000000    -8.101000000     2.003000000
C    -4.842000000    -7.697000000     0.040000000
H    -5.634000000    -8.442000000     0.058000000
C    -4.685000000    -6.927000000    -1.141000000
H    -5.380000000    -6.919000000    -1.977000000
C    -3.606000000    -6.063000000    -1.260000000
O    -3.330000000    -5.497000000    -2.519000000
C    -3.212000000    -4.164000000    -2.826000000
C    -2.739000000    -3.811000000    -4.080000000
H    -2.534000000    -4.644000000    -4.747000000
C    -2.770000000    -2.562000000    -4.577000000
O    -2.484000000    -2.463000000    -5.897000000
C    -1.873000000    -1.319000000    -6.311000000
C    -0.507000000    -1.224000000    -6.226000000
H     0.087000000    -1.957000000    -5.686000000
C    -2.668000000    -0.298000000    -6.879000000
H    -3.749000000    -0.399000000    -6.926000000
C    -2.072000000     0.853000000    -7.331000000
H    -2.609000000     1.636000000    -7.860000000
C    -0.693000000     1.029000000    -7.152000000
H    -0.223000000     1.954000000    -7.476000000
C     0.067000000    -0.010000000    -6.586000000
O     1.445000000     0.092000000    -6.300000000
C     1.804000000     0.981000000    -5.344000000
C     3.181000000     1.285000000    -5.175000000
H     3.902000000     0.909000000    -5.896000000
C     3.692000000     1.967000000    -4.100000000
O     5.054000000     2.164000000    -4.025000000
C     5.805000000     2.700000000    -2.965000000
C     6.506000000     3.877000000    -3.213000000
H     6.293000000     4.479000000    -4.093000000
C     7.440000000     4.309000000    -2.243000000
H     8.155000000     5.097000000    -2.466000000
C     7.614000000     3.514000000    -1.113000000
H     8.361000000     3.799000000    -0.376000000
C     6.751000000     2.499000000    -0.813000000
C     5.971000000     1.918000000    -1.805000000
H     5.402000000     1.005000000    -1.648000000
C     0.572000000    -1.935000000    -1.725000000
H     0.135000000    -2.652000000    -2.416000000
C    -0.184000000    -1.386000000    -0.683000000
H    -1.195000000    -1.725000000    -0.470000000
C     0.387000000    -0.447000000     0.138000000
H    -0.144000000    -0.162000000     1.012000000
C     1.701000000    -0.050000000    -0.009000000
H     2.185000000     0.716000000     0.592000000
C     2.494000000    -0.673000000    -0.974000000
H     3.529000000    -0.430000000    -1.198000000
C     1.930000000    -1.654000000    -1.830000000
C     2.821000000    -2.327000000    -2.824000000
O     3.941000000    -1.971000000    -2.939000000
O     2.447000000    -3.336000000    -3.404000000
O     1.014000000    -4.356000000    -6.940000000
H     0.724000000    -5.194000000    -7.301000000
H     1.739000000    -4.584000000    -6.359000000
O     3.691000000    -7.303000000    -3.644000000
H     3.003000000    -7.837000000    -3.248000000
H     3.240000000    -6.790000000    -4.314000000
O     6.275000000    -8.126000000    -4.231000000
H     5.381000000    -7.784000000    -4.200000000
H     6.678000000    -7.815000000    -3.420000000
O     6.879000000    -4.102000000    -4.374000000
H     6.834000000    -3.201000000    -4.053000000
H     6.483000000    -4.625000000    -3.676000000
O     1.735000000    -8.369000000    -2.092000000
H     0.820000000    -8.629000000    -2.198000000
H     1.693000000    -7.499000000    -1.694000000
O     1.520000000    -5.545000000    -1.353000000
H     1.576000000    -4.904000000    -0.644000000
H     1.153000000    -5.056000000    -2.089000000
O     2.120000000    -2.232000000    -8.472000000
H     1.421000000    -1.596000000    -8.629000000
H     1.702000000    -2.927000000    -7.963000000
O     5.495000000    -5.053000000    -6.582000000
H     5.795000000    -4.735000000    -7.433000000
H     5.983000000    -4.531000000    -5.945000000
O     0.844000000    -7.360000000    -4.656000000
H     0.822000000    -6.432000000    -4.422000000
H    -0.050000000    -7.667000000    -4.504000000
O     2.595000000    -7.508000000    -7.066000000
H     2.039000000    -7.355000000    -6.301000000
H     3.396000000    -7.018000000    -6.881000000
O     5.935000000    -4.734000000     0.610000000
H     5.763000000    -4.567000000    -0.317000000
H     5.455000000    -5.540000000     0.801000000
O     0.153000000    -4.563000000    -4.138000000
H    -0.147000000    -4.138000000    -4.941000000
H     0.972000000    -4.118000000    -3.923000000
O     4.698000000    -4.680000000    -1.710000000
H     4.416000000    -3.814000000    -2.007000000
H     3.895000000    -5.202000000    -1.699000000
O     4.044000000    -2.223000000    -5.644000000
H     4.116000000    -2.175000000    -4.691000000
H     3.173000000    -1.877000000    -5.836000000
O     6.265000000    -1.795000000    -7.383000000
H     5.485000000    -1.931000000    -6.845000000
H     6.886000000    -1.361000000    -6.798000000
O     3.155000000    -5.197000000    -5.147000000
H     2.985000000    -4.368000000    -4.699000000
H     3.990000000    -5.061000000    -5.594000000
O     6.599000000    -1.490000000    -3.054000000
H     6.869000000    -1.386000000    -2.141000000
H     5.645000000    -1.556000000    -3.015000000
O     6.769000000    -6.958000000    -1.733000000
H     7.053000000    -7.240000000    -0.864000000
H     5.859000000    -6.687000000    -1.612000000
O     7.751000000    -0.868000000    -5.209000000
H     7.269000000    -0.893000000    -4.382000000
H     8.232000000    -0.041000000    -5.181000000
