215
-1456.13043
C    -2.645000000    -4.372000000     2.088000000
H    -3.678000000    -4.098000000     1.889000000
C    -1.824000000    -3.460000000     2.843000000
C    -0.477000000    -3.705000000     2.967000000
H     0.212000000    -2.974000000     3.382000000
C    -2.300000000    -2.078000000     3.134000000
O    -3.750000000    -1.932000000     3.040000000
H    -1.773000000    -1.492000000     2.367000000
O    -1.848000000    -1.530000000     4.372000000
C    -1.345000000    -0.257000000     4.403000000
C     0.023000000    -0.052000000     4.389000000
H     0.659000000    -0.919000000     4.544000000
C     0.632000000     1.212000000     4.373000000
O     1.983000000     1.341000000     4.427000000
C    -0.186000000     2.350000000     4.335000000
C     0.332000000     3.737000000     4.323000000
H    -0.394000000     4.408000000     4.787000000
C     0.602000000     4.196000000     2.845000000
C    -0.347000000     4.755000000     1.985000000
H    -1.348000000     4.973000000     2.348000000
H     1.281000000     3.841000000     4.852000000
C    -1.559000000     2.176000000     4.243000000
H    -2.187000000     3.059000000     4.162000000
C    -2.135000000     0.881000000     4.288000000
C    -3.718000000     0.738000000     4.141000000
H    -4.149000000     1.710000000     4.388000000
H    -4.117000000    -0.027000000     4.811000000
C    -4.193000000     0.389000000     2.753000000
C    -4.598000000     1.369000000     1.831000000
H    -4.616000000     2.406000000     2.157000000
C    -4.118000000    -0.898000000     2.239000000
C    -4.216000000    -1.202000000     0.920000000
H    -3.866000000    -2.089000000     0.397000000
C    -4.612000000    -0.204000000     0.019000000
O    -4.651000000    -0.478000000    -1.328000000
C    -3.460000000    -0.276000000    -2.162000000
C    -3.274000000    -1.453000000    -3.145000000
C    -2.425000000    -1.292000000    -4.196000000
H    -2.121000000    -0.275000000    -4.432000000
C    -3.797000000    -2.706000000    -2.887000000
H    -4.460000000    -2.730000000    -2.025000000
O    -3.652000000     1.029000000    -2.836000000
H    -2.548000000    -0.273000000    -1.548000000
C    -4.752000000     1.108000000     0.486000000
C    -4.973000000     2.231000000    -0.507000000
H    -5.495000000     3.045000000     0.000000000
H    -5.659000000     1.989000000    -1.321000000
C    -3.679000000     2.741000000    -1.153000000
C    -3.035000000     3.813000000    -0.516000000
H    -3.406000000     4.255000000     0.405000000
C    -3.144000000     2.139000000    -2.283000000
C    -2.005000000     2.662000000    -2.805000000
H    -1.533000000     2.108000000    -3.613000000
C    -1.361000000     3.752000000    -2.224000000
O    -0.158000000     4.055000000    -2.864000000
C     0.948000000     3.500000000    -2.110000000
C     2.024000000     2.901000000    -2.971000000
C     1.689000000     1.930000000    -3.975000000
H     0.626000000     1.763000000    -4.128000000
C     3.397000000     3.166000000    -2.822000000
H     3.649000000     3.787000000    -1.967000000
O     1.550000000     4.479000000    -1.244000000
H     0.525000000     2.741000000    -1.436000000
C    -1.872000000     4.308000000    -1.070000000
C    -1.113000000     5.498000000    -0.340000000
H    -1.801000000     6.089000000     0.269000000
H    -0.561000000     6.054000000    -1.100000000
C    -0.051000000     4.908000000     0.635000000
C     1.258000000     4.452000000     0.156000000
C     2.242000000     4.080000000     1.003000000
H     3.239000000     3.818000000     0.658000000
C     1.877000000     3.876000000     2.331000000
O     2.788000000     3.171000000     3.074000000
C     2.592000000     1.695000000     3.207000000
H     1.955000000     1.285000000     2.409000000
C     3.883000000     0.882000000     3.009000000
C     4.106000000    -0.290000000     3.648000000
H     3.340000000    -0.684000000     4.311000000
C     4.707000000     1.264000000     1.973000000
H     4.481000000     2.195000000     1.460000000
C     5.810000000     0.511000000     1.602000000
O     6.755000000     0.990000000     0.676000000
C     5.983000000    -0.745000000     2.201000000
H     6.896000000    -1.282000000     1.956000000
C     5.088000000    -1.145000000     3.241000000
O     5.343000000    -2.372000000     3.850000000
C     4.294000000    -3.243000000     4.182000000
C     3.360000000    -3.661000000     3.154000000
H     3.527000000    -3.270000000     2.153000000
C     4.066000000    -3.556000000     5.543000000
H     4.839000000    -3.308000000     6.266000000
C     2.967000000    -4.348000000     5.839000000
H     2.843000000    -4.687000000     6.865000000
C     2.109000000    -4.842000000     4.892000000
H     1.289000000    -5.479000000     5.214000000
C     2.308000000    -4.514000000     3.523000000
O     1.438000000    -5.143000000     2.634000000
C     0.107000000    -4.848000000     2.498000000
C    -0.636000000    -5.721000000     1.759000000
H    -0.136000000    -6.641000000     1.469000000
C    -2.023000000    -5.471000000     1.527000000
O    -2.730000000    -6.383000000     0.828000000
C    -3.746000000    -6.127000000    -0.105000000
C    -3.457000000    -5.624000000    -1.365000000
H    -2.405000000    -5.623000000    -1.640000000
C    -5.079000000    -6.318000000     0.257000000
H    -5.455000000    -6.581000000     1.243000000
C    -6.088000000    -6.281000000    -0.703000000
H    -7.129000000    -6.553000000    -0.548000000
C    -5.662000000    -5.997000000    -2.011000000
H    -6.396000000    -5.934000000    -2.811000000
C    -4.440000000    -5.427000000    -2.291000000
O    -4.097000000    -5.004000000    -3.570000000
C    -3.534000000    -3.787000000    -3.686000000
C    -2.713000000    -3.625000000    -4.812000000
H    -2.526000000    -4.428000000    -5.521000000
C    -2.164000000    -2.313000000    -5.100000000
O    -1.459000000    -2.184000000    -6.288000000
C    -0.774000000    -1.032000000    -6.598000000
C     0.483000000    -0.867000000    -6.036000000
H     0.765000000    -1.481000000    -5.185000000
C    -1.260000000    -0.066000000    -7.457000000
H    -2.233000000    -0.275000000    -7.894000000
C    -0.438000000     0.951000000    -7.833000000
H    -0.721000000     1.663000000    -8.604000000
C     0.805000000     1.152000000    -7.306000000
H     1.419000000     2.032000000    -7.478000000
C     1.209000000     0.245000000    -6.340000000
O     2.424000000     0.378000000    -5.723000000
C     2.702000000     1.352000000    -4.776000000
C     4.001000000     1.706000000    -4.607000000
H     4.751000000     1.173000000    -5.186000000
C     4.374000000     2.634000000    -3.646000000
O     5.676000000     3.028000000    -3.515000000
C     6.232000000     3.093000000    -2.303000000
C     6.783000000     4.269000000    -1.811000000
H     6.611000000     5.170000000    -2.394000000
C     7.333000000     4.380000000    -0.568000000
H     7.815000000     5.248000000    -0.126000000
C     7.286000000     3.244000000     0.315000000
H     7.617000000     3.367000000     1.343000000
C     6.670000000     2.055000000    -0.119000000
C     6.082000000     1.991000000    -1.394000000
H     5.656000000     1.041000000    -1.704000000
C     0.142000000    -1.408000000    -0.702000000
H    -0.344000000    -2.362000000    -0.889000000
C    -0.383000000    -0.336000000     0.017000000
H    -1.416000000    -0.357000000     0.355000000
C     0.395000000     0.804000000     0.219000000
H    -0.069000000     1.676000000     0.773000000
C     1.690000000     0.850000000    -0.246000000
H     2.242000000     1.749000000     0.015000000
C     2.300000000    -0.218000000    -0.983000000
H     3.323000000    -0.225000000    -1.352000000
C     1.474000000    -1.340000000    -1.175000000
C     2.090000000    -2.571000000    -1.874000000
O     3.314000000    -2.603000000    -2.045000000
O     1.440000000    -3.530000000    -2.169000000
O     1.320000000    -5.392000000    -6.703000000
H     1.200000000    -6.141000000    -7.288000000
H     1.223000000    -5.757000000    -5.824000000
O     3.342000000    -7.307000000    -4.281000000
H     3.208000000    -7.372000000    -3.335000000
H     3.389000000    -6.367000000    -4.451000000
O     6.215000000    -7.581000000    -4.803000000
H     5.438000000    -7.831000000    -4.303000000
H     6.786000000    -8.348000000    -4.758000000
O     7.006000000    -5.357000000    -3.188000000
H     6.322000000    -4.688000000    -3.174000000
H     6.677000000    -6.024000000    -3.791000000
O     1.921000000    -7.915000000    -1.787000000
H     1.116000000    -7.603000000    -2.200000000
H     2.204000000    -7.186000000    -1.235000000
O     1.915000000    -5.613000000    -0.464000000
H     2.208000000    -5.443000000     0.431000000
H     1.539000000    -4.782000000    -0.755000000
O     1.681000000    -3.000000000    -7.810000000
H     0.929000000    -3.187000000    -8.372000000
H     1.680000000    -3.707000000    -7.165000000
O     6.441000000    -5.535000000    -6.570000000
H     6.586000000    -4.940000000    -5.834000000
H     6.451000000    -6.408000000    -6.178000000
O    -0.237000000    -7.982000000    -3.781000000
H    -0.228000000    -7.097000000    -4.147000000
H    -1.081000000    -8.048000000    -3.334000000
O     8.197000000    -5.517000000    -0.824000000
H     7.464000000    -5.292000000    -0.249000000
H     7.795000000    -5.655000000    -1.681000000
O     6.279000000    -5.309000000     1.506000000
H     5.538000000    -4.898000000     1.061000000
H     5.919000000    -6.116000000     1.875000000
O     0.339000000    -5.007000000    -3.943000000
H    -0.112000000    -4.351000000    -4.475000000
H     0.873000000    -4.495000000    -3.335000000
O     4.389000000    -4.271000000    -0.258000000
H     4.168000000    -3.642000000    -0.945000000
H     3.763000000    -4.985000000    -0.378000000
O     4.251000000    -1.999000000    -6.611000000
H     4.017000000    -1.740000000    -5.719000000
H     3.424000000    -2.279000000    -7.004000000
O     4.268000000    -7.027000000     2.112000000
H     4.518000000    -7.926000000     2.326000000
H     3.342000000    -6.974000000     2.349000000
O     7.479000000    -1.004000000    -2.007000000
H     8.397000000    -0.906000000    -2.259000000
H     7.453000000    -0.741000000    -1.087000000
O     3.664000000    -4.692000000    -3.863000000
H     3.019000000    -4.206000000    -3.349000000
H     4.461000000    -4.165000000    -3.808000000
O     5.674000000    -2.834000000    -3.263000000
H     6.278000000    -2.134000000    -3.013000000
H     4.871000000    -2.641000000    -2.777000000
O     7.030000000    -0.993000000    -6.614000000
H     6.203000000    -1.336000000    -6.275000000
H     7.642000000    -1.077000000    -5.882000000
