215
-1444.71074
C    -2.501000000    -4.003000000     2.895000000
H    -3.579000000    -3.879000000     2.829000000
C    -1.699000000    -2.962000000     3.352000000
C    -0.352000000    -3.239000000     3.423000000
H     0.381000000    -2.485000000     3.699000000
C    -2.227000000    -1.594000000     3.497000000
O    -3.662000000    -1.547000000     3.378000000
H    -1.763000000    -1.071000000     2.648000000
O    -1.889000000    -1.072000000     4.735000000
C    -1.428000000     0.254000000     4.653000000
C    -0.064000000     0.465000000     4.732000000
H     0.573000000    -0.403000000     4.882000000
C     0.457000000     1.671000000     4.377000000
O     1.809000000     1.774000000     4.267000000
C    -0.430000000     2.717000000     4.093000000
C     0.104000000     4.086000000     3.637000000
H    -0.645000000     4.861000000     3.807000000
C     0.546000000     4.128000000     2.153000000
C    -0.289000000     4.783000000     1.231000000
H    -1.298000000     5.046000000     1.539000000
H     1.066000000     4.236000000     4.132000000
C    -1.786000000     2.591000000     4.075000000
H    -2.366000000     3.467000000     3.796000000
C    -2.330000000     1.332000000     4.363000000
C    -3.848000000     1.128000000     4.166000000
H    -4.465000000     2.025000000     4.255000000
H    -4.264000000     0.471000000     4.932000000
C    -4.147000000     0.625000000     2.727000000
C    -4.427000000     1.513000000     1.657000000
H    -4.497000000     2.557000000     1.952000000
C    -4.194000000    -0.697000000     2.455000000
C    -4.476000000    -1.155000000     1.139000000
H    -4.423000000    -2.212000000     0.890000000
C    -4.679000000    -0.239000000     0.044000000
O    -4.694000000    -0.642000000    -1.261000000
C    -3.503000000    -0.290000000    -2.015000000
C    -3.018000000    -1.541000000    -2.768000000
C    -2.163000000    -1.353000000    -3.843000000
H    -1.770000000    -0.356000000    -4.021000000
C    -3.417000000    -2.850000000    -2.353000000
H    -4.086000000    -3.038000000    -1.517000000
O    -3.728000000     0.833000000    -2.930000000
H    -2.656000000    -0.014000000    -1.370000000
C    -4.591000000     1.137000000     0.329000000
C    -4.917000000     2.154000000    -0.776000000
H    -5.384000000     2.967000000    -0.216000000
H    -5.702000000     1.901000000    -1.492000000
C    -3.624000000     2.738000000    -1.375000000
C    -2.967000000     3.911000000    -1.003000000
H    -3.424000000     4.390000000    -0.141000000
C    -3.155000000     2.044000000    -2.500000000
C    -1.968000000     2.402000000    -3.088000000
H    -1.612000000     1.835000000    -3.944000000
C    -1.252000000     3.505000000    -2.654000000
O    -0.086000000     3.789000000    -3.189000000
C     1.086000000     3.206000000    -2.569000000
C     1.950000000     2.572000000    -3.589000000
C     1.590000000     2.396000000    -4.938000000
H     0.587000000     2.641000000    -5.277000000
C     3.274000000     2.267000000    -3.092000000
H     3.505000000     2.432000000    -2.043000000
O     1.737000000     4.333000000    -1.853000000
H     0.749000000     2.489000000    -1.805000000
C    -1.800000000     4.348000000    -1.664000000
C    -0.973000000     5.524000000    -1.170000000
H    -1.632000000     6.199000000    -0.620000000
H    -0.492000000     6.075000000    -1.981000000
C     0.040000000     5.017000000    -0.142000000
C     1.340000000     4.527000000    -0.518000000
C     2.192000000     3.920000000     0.429000000
H     3.203000000     3.658000000     0.126000000
C     1.845000000     3.766000000     1.777000000
O     2.684000000     3.167000000     2.658000000
C     2.501000000     1.820000000     2.971000000
H     1.745000000     1.450000000     2.263000000
C     3.807000000     1.080000000     2.792000000
C     3.916000000    -0.073000000     3.592000000
H     3.114000000    -0.359000000     4.268000000
C     4.657000000     1.283000000     1.730000000
H     4.362000000     2.031000000     1.000000000
C     5.826000000     0.574000000     1.787000000
O     6.939000000     0.787000000     0.895000000
C     6.073000000    -0.378000000     2.755000000
H     7.037000000    -0.877000000     2.687000000
C     5.069000000    -0.822000000     3.597000000
O     5.307000000    -1.912000000     4.326000000
C     4.285000000    -2.763000000     4.726000000
C     3.387000000    -3.299000000     3.753000000
H     3.391000000    -3.128000000     2.679000000
C     4.259000000    -3.303000000     6.010000000
H     4.939000000    -2.921000000     6.767000000
C     3.222000000    -4.177000000     6.425000000
H     3.097000000    -4.545000000     7.440000000
C     2.292000000    -4.617000000     5.457000000
H     1.609000000    -5.406000000     5.764000000
C     2.439000000    -4.225000000     4.115000000
O     1.571000000    -4.751000000     3.218000000
C     0.193000000    -4.491000000     3.111000000
C    -0.679000000    -5.438000000     2.620000000
H    -0.301000000    -6.436000000     2.412000000
C    -1.996000000    -5.236000000     2.496000000
O    -2.812000000    -6.241000000     2.079000000
C    -3.555000000    -6.004000000     0.929000000
C    -2.985000000    -5.555000000    -0.309000000
H    -1.927000000    -5.313000000    -0.377000000
C    -4.897000000    -6.377000000     0.949000000
H    -5.383000000    -6.806000000     1.822000000
C    -5.682000000    -6.413000000    -0.174000000
H    -6.707000000    -6.775000000    -0.179000000
C    -5.097000000    -6.084000000    -1.392000000
H    -5.676000000    -6.123000000    -2.311000000
C    -3.756000000    -5.650000000    -1.478000000
O    -3.226000000    -5.273000000    -2.736000000
C    -2.939000000    -3.954000000    -3.029000000
C    -2.103000000    -3.727000000    -4.132000000
H    -1.635000000    -4.577000000    -4.622000000
C    -1.672000000    -2.484000000    -4.512000000
O    -0.751000000    -2.348000000    -5.530000000
C    -0.565000000    -1.231000000    -6.331000000
C     0.519000000    -0.446000000    -6.187000000
H     1.139000000    -0.627000000    -5.313000000
C    -1.376000000    -1.091000000    -7.419000000
H    -2.204000000    -1.777000000    -7.581000000
C    -1.094000000    -0.020000000    -8.357000000
H    -1.740000000     0.123000000    -9.219000000
C    -0.045000000     0.839000000    -8.180000000
H     0.243000000     1.592000000    -8.909000000
C     0.858000000     0.570000000    -7.113000000
O     2.044000000     1.209000000    -7.004000000
C     2.443000000     1.728000000    -5.788000000
C     3.751000000     1.579000000    -5.395000000
H     4.456000000     1.202000000    -6.132000000
C     4.204000000     1.851000000    -4.056000000
O     5.458000000     1.533000000    -3.638000000
C     6.090000000     1.997000000    -2.481000000
C     6.105000000     3.356000000    -2.278000000
H     5.812000000     4.039000000    -3.071000000
C     6.551000000     3.929000000    -1.038000000
H     6.683000000     5.007000000    -0.986000000
C     6.762000000     3.033000000    -0.013000000
H     7.151000000     3.450000000     0.912000000
C     6.660000000     1.627000000    -0.190000000
C     6.302000000     1.098000000    -1.389000000
H     6.206000000     0.020000000    -1.500000000
C    -0.273000000    -2.386000000     0.329000000
H    -0.891000000    -3.279000000     0.377000000
C    -0.900000000    -1.098000000     0.430000000
H    -1.971000000    -1.057000000     0.606000000
C    -0.189000000     0.085000000     0.413000000
H    -0.786000000     0.962000000     0.725000000
C     1.207000000     0.017000000     0.292000000
H     1.871000000     0.877000000     0.262000000
C     1.836000000    -1.267000000     0.252000000
H     2.917000000    -1.388000000     0.256000000
C     1.105000000    -2.422000000     0.182000000
C     1.929000000    -3.799000000     0.063000000
O     3.162000000    -3.743000000    -0.083000000
O     1.373000000    -4.881000000    -0.061000000
O    -1.389000000    -7.409000000    -4.088000000
H    -0.935000000    -7.041000000    -3.329000000
H    -2.239000000    -7.687000000    -3.747000000
O     0.265000000    -8.436000000     0.110000000
H     0.887000000    -7.805000000     0.473000000
H    -0.508000000    -8.360000000     0.670000000
O     3.603000000    -7.816000000     4.439000000
H     2.880000000    -8.381000000     4.165000000
H     3.485000000    -7.719000000     5.384000000
O     4.937000000    -2.773000000    -1.940000000
H     5.355000000    -2.315000000    -1.211000000
H     4.429000000    -3.470000000    -1.525000000
O     7.329000000    -5.903000000     2.775000000
H     6.867000000    -5.331000000     2.162000000
H     6.855000000    -6.734000000     2.731000000
O     0.359000000    -6.651000000    -1.907000000
H     0.575000000    -5.968000000    -1.272000000
H     0.229000000    -7.438000000    -1.377000000
O     2.087000000    -6.932000000     1.630000000
H     2.404000000    -6.574000000     2.459000000
H     1.831000000    -6.163000000     1.120000000
O     5.053000000    -4.546000000    -4.047000000
H     5.278000000    -4.034000000    -3.270000000
H     4.293000000    -5.064000000    -3.781000000
O     5.684000000    -8.163000000     2.864000000
H     5.927000000    -8.883000000     3.446000000
H     4.913000000    -7.772000000     3.276000000
O     1.769000000    -7.664000000    -5.444000000
H     1.118000000    -7.430000000    -4.783000000
H     1.397000000    -7.349000000    -6.268000000
O     5.767000000    -4.492000000     0.790000000
H     4.858000000    -4.205000000     0.704000000
H     5.914000000    -5.053000000     0.029000000
O     4.064000000    -2.417000000    -5.977000000
H     3.684000000    -1.913000000    -5.257000000
H     3.854000000    -3.327000000    -5.768000000
O     6.326000000    -6.352000000    -1.099000000
H     7.162000000    -6.028000000    -1.434000000
H     6.555000000    -7.139000000    -0.605000000
O     3.974000000    -9.133000000     0.256000000
H     3.075000000    -9.388000000     0.051000000
H     3.883000000    -8.435000000     0.905000000
O     4.524000000    -7.769000000    -2.786000000
H     5.217000000    -7.572000000    -2.155000000
H     3.883000000    -7.070000000    -2.664000000
O     2.770000000    -5.562000000    -2.611000000
H     1.972000000    -5.191000000    -2.986000000
H     2.648000000    -5.484000000    -1.664000000
O     3.178000000    -1.593000000    -3.616000000
H     4.022000000    -1.721000000    -3.183000000
H     2.600000000    -1.272000000    -2.925000000
O     7.057000000    -2.118000000     0.079000000
H     6.665000000    -2.914000000     0.439000000
H     7.996000000    -2.306000000     0.049000000
O    -1.875000000    -8.866000000     2.038000000
H    -2.102000000    -7.941000000     1.943000000
H    -2.050000000    -9.062000000     2.958000000
