215
-1450.92590
C    -1.572000000    -4.716000000     2.878000000
H    -2.460000000    -4.331000000     2.384000000
C    -0.845000000    -3.725000000     3.528000000
C     0.448000000    -4.011000000     4.007000000
H     0.981000000    -3.224000000     4.533000000
C    -1.379000000    -2.271000000     3.631000000
O    -2.789000000    -2.294000000     3.727000000
H    -1.013000000    -1.777000000     2.718000000
O    -0.778000000    -1.550000000     4.631000000
C    -0.443000000    -0.238000000     4.518000000
C     0.905000000     0.119000000     4.202000000
H     1.680000000    -0.642000000     4.172000000
C     1.236000000     1.449000000     4.002000000
O     2.522000000     1.728000000     3.604000000
C     0.281000000     2.466000000     4.097000000
C     0.671000000     3.898000000     3.906000000
H    -0.021000000     4.556000000     4.435000000
C     0.604000000     4.202000000     2.395000000
C    -0.619000000     4.537000000     1.793000000
H    -1.539000000     4.612000000     2.366000000
H     1.646000000     4.198000000     4.295000000
C    -1.065000000     2.143000000     4.428000000
H    -1.786000000     2.952000000     4.505000000
C    -1.446000000     0.771000000     4.601000000
C    -2.872000000     0.398000000     4.601000000
H    -3.466000000     1.178000000     5.082000000
H    -2.925000000    -0.393000000     5.352000000
C    -3.468000000    -0.026000000     3.297000000
C    -4.105000000     0.890000000     2.539000000
H    -4.022000000     1.918000000     2.883000000
C    -3.392000000    -1.359000000     2.903000000
C    -3.755000000    -1.678000000     1.567000000
H    -3.620000000    -2.674000000     1.154000000
C    -4.445000000    -0.735000000     0.749000000
O    -4.798000000    -1.069000000    -0.556000000
C    -3.829000000    -0.538000000    -1.511000000
C    -3.277000000    -1.637000000    -2.386000000
C    -2.489000000    -1.285000000    -3.468000000
H    -2.353000000    -0.262000000    -3.807000000
C    -3.366000000    -2.995000000    -1.993000000
H    -4.018000000    -3.213000000    -1.151000000
O    -4.319000000     0.605000000    -2.266000000
H    -2.918000000    -0.170000000    -1.016000000
C    -4.680000000     0.515000000     1.321000000
C    -5.286000000     1.603000000     0.405000000
H    -5.798000000     2.335000000     1.033000000
H    -6.153000000     1.199000000    -0.123000000
C    -4.289000000     2.347000000    -0.467000000
C    -3.690000000     3.534000000     0.000000000
H    -3.832000000     3.843000000     1.032000000
C    -3.960000000     1.811000000    -1.732000000
C    -3.064000000     2.575000000    -2.526000000
H    -2.760000000     2.306000000    -3.535000000
C    -2.484000000     3.749000000    -2.081000000
O    -1.489000000     4.248000000    -2.842000000
C    -0.174000000     3.815000000    -2.501000000
C     0.699000000     3.468000000    -3.680000000
C     0.138000000     3.070000000    -4.878000000
H    -0.937000000     3.010000000    -5.029000000
C     2.112000000     3.227000000    -3.468000000
H     2.441000000     3.339000000    -2.438000000
O     0.421000000     4.819000000    -1.711000000
H    -0.236000000     2.863000000    -1.953000000
C    -2.797000000     4.236000000    -0.817000000
C    -2.018000000     5.399000000    -0.229000000
H    -2.645000000     5.904000000     0.510000000
H    -1.779000000     6.160000000    -0.975000000
C    -0.725000000     4.923000000     0.471000000
C     0.412000000     4.732000000    -0.361000000
C     1.609000000     4.198000000     0.149000000
H     2.471000000     3.948000000    -0.464000000
C     1.692000000     4.035000000     1.537000000
O     2.863000000     3.369000000     1.902000000
C     2.791000000     1.962000000     2.207000000
H     1.881000000     1.611000000     1.698000000
C     3.989000000     1.069000000     1.759000000
C     4.161000000    -0.167000000     2.302000000
H     3.523000000    -0.393000000     3.153000000
C     4.894000000     1.519000000     0.770000000
H     4.878000000     2.518000000     0.344000000
C     5.956000000     0.697000000     0.347000000
O     6.825000000     1.263000000    -0.572000000
C     6.081000000    -0.607000000     0.852000000
H     6.894000000    -1.234000000     0.495000000
C     5.209000000    -0.995000000     1.886000000
O     5.301000000    -2.353000000     2.314000000
C     4.694000000    -2.821000000     3.414000000
C     3.837000000    -3.934000000     3.270000000
H     3.623000000    -4.288000000     2.264000000
C     5.038000000    -2.166000000     4.666000000
H     5.668000000    -1.284000000     4.747000000
C     4.226000000    -2.683000000     5.717000000
H     4.262000000    -2.236000000     6.708000000
C     3.440000000    -3.824000000     5.590000000
H     2.859000000    -4.063000000     6.477000000
C     3.316000000    -4.523000000     4.419000000
O     2.334000000    -5.477000000     4.340000000
C     1.014000000    -5.262000000     3.879000000
C     0.276000000    -6.267000000     3.218000000
H     0.694000000    -7.225000000     2.919000000
C    -1.031000000    -5.956000000     2.724000000
O    -1.669000000    -6.939000000     2.016000000
C    -2.564000000    -6.641000000     1.070000000
C    -2.147000000    -6.042000000    -0.175000000
H    -1.083000000    -5.912000000    -0.355000000
C    -3.871000000    -6.734000000     1.475000000
H    -4.066000000    -6.990000000     2.513000000
C    -4.886000000    -6.437000000     0.481000000
H    -5.919000000    -6.674000000     0.722000000
C    -4.434000000    -5.933000000    -0.798000000
H    -5.199000000    -5.679000000    -1.527000000
C    -3.097000000    -5.718000000    -1.093000000
O    -2.611000000    -5.302000000    -2.266000000
C    -2.607000000    -4.014000000    -2.657000000
C    -1.831000000    -3.624000000    -3.748000000
H    -1.229000000    -4.366000000    -4.266000000
C    -1.746000000    -2.296000000    -4.098000000
O    -0.892000000    -1.991000000    -5.063000000
C    -1.098000000    -0.970000000    -6.015000000
C    -0.229000000     0.130000000    -6.097000000
H     0.571000000     0.167000000    -5.362000000
C    -2.102000000    -1.065000000    -7.010000000
H    -2.626000000    -2.017000000    -7.021000000
C    -2.215000000    -0.091000000    -8.061000000
H    -2.925000000    -0.245000000    -8.869000000
C    -1.425000000     1.032000000    -8.018000000
H    -1.504000000     1.615000000    -8.932000000
C    -0.439000000     1.168000000    -7.024000000
O     0.504000000     2.113000000    -7.146000000
C     0.980000000     2.631000000    -5.916000000
C     2.318000000     2.475000000    -5.693000000
H     2.879000000     2.184000000    -6.578000000
C     2.924000000     2.805000000    -4.533000000
O     4.166000000     2.492000000    -4.413000000
C     5.074000000     2.846000000    -3.430000000
C     5.581000000     4.115000000    -3.430000000
H     5.412000000     4.803000000    -4.255000000
C     6.600000000     4.401000000    -2.551000000
H     6.960000000     5.425000000    -2.499000000
C     7.035000000     3.478000000    -1.591000000
H     7.609000000     3.767000000    -0.714000000
C     6.489000000     2.186000000    -1.576000000
C     5.488000000     1.855000000    -2.535000000
H     5.298000000     0.794000000    -2.676000000
C     0.176000000    -2.156000000    -1.026000000
H     0.151000000    -3.190000000    -1.360000000
C    -0.658000000    -1.679000000    -0.043000000
H    -1.318000000    -2.363000000     0.484000000
C    -0.671000000    -0.362000000     0.313000000
H    -1.391000000    -0.059000000     1.013000000
C     0.299000000     0.513000000    -0.165000000
H     0.341000000     1.535000000     0.203000000
C     1.162000000     0.076000000    -1.159000000
H     1.966000000     0.685000000    -1.563000000
C     1.173000000    -1.287000000    -1.591000000
C     2.238000000    -1.836000000    -2.476000000
O     2.922000000    -1.074000000    -3.166000000
O     2.316000000    -3.035000000    -2.644000000
O     0.343000000    -6.417000000    -6.252000000
H     0.705000000    -5.851000000    -5.570000000
H    -0.571000000    -6.145000000    -6.329000000
O     8.195000000    -0.720000000    -5.089000000
H     8.171000000    -0.562000000    -6.033000000
H     8.309000000     0.149000000    -4.703000000
O     6.020000000     1.370000000    -6.321000000
H     5.733000000     2.155000000    -6.787000000
H     5.207000000     0.929000000    -6.073000000
O     1.443000000    -7.865000000     0.512000000
H     1.336000000    -7.020000000     0.076000000
H     2.231000000    -8.239000000     0.118000000
O     4.476000000    -3.988000000    -0.476000000
H     5.399000000    -3.856000000    -0.261000000
H     4.204000000    -3.163000000    -0.880000000
O     2.788000000    -1.398000000    -7.938000000
H     2.937000000    -0.723000000    -8.600000000
H     2.927000000    -0.950000000    -7.104000000
O    -0.287000000    -7.667000000    -3.166000000
H     0.422000000    -7.047000000    -2.993000000
H    -1.082000000    -7.198000000    -2.910000000
O     6.246000000    -3.096000000    -6.383000000
H     7.163000000    -2.834000000    -6.305000000
H     5.835000000    -2.774000000    -5.581000000
O     7.621000000    -5.695000000    -1.952000000
H     7.558000000    -6.339000000    -2.657000000
H     7.393000000    -4.863000000    -2.367000000
O     1.425000000    -4.567000000    -4.588000000
H     2.106000000    -4.441000000    -5.249000000
H     1.706000000    -4.029000000    -3.849000000
O     7.047000000    -4.087000000     0.449000000
H     7.583000000    -3.361000000     0.131000000
H     7.621000000    -4.851000000     0.394000000
O     3.861000000    -0.624000000    -5.632000000
H     3.334000000    -0.551000000    -4.837000000
H     4.672000000    -1.044000000    -5.344000000
O     4.145000000    -5.308000000    -5.645000000
H     3.926000000    -4.666000000    -6.321000000
H     4.599000000    -6.007000000    -6.117000000
O     7.639000000    -2.949000000    -3.346000000
H     6.694000000    -2.879000000    -3.206000000
H     7.819000000    -2.348000000    -4.069000000
O     4.780000000    -2.772000000    -4.082000000
H     4.206000000    -2.184000000    -3.590000000
H     4.224000000    -3.519000000    -4.303000000
O     8.840000000    -2.093000000    -1.010000000
H     9.189000000    -1.205000000    -1.086000000
H     8.572000000    -2.322000000    -1.900000000
O     3.560000000    -6.631000000    -3.237000000
H     3.118000000    -6.062000000    -2.607000000
H     3.928000000    -6.031000000    -3.885000000
O     2.094000000    -5.387000000    -1.048000000
H     2.807000000    -5.016000000    -0.529000000
H     1.926000000    -4.733000000    -1.727000000
O     2.213000000    -4.252000000    -7.807000000
H     1.369000000    -4.261000000    -8.257000000
H     2.437000000    -3.324000000    -7.736000000
