215
-1446.32580
C    -2.550000000    -4.279000000     3.483000000
H    -3.580000000    -4.110000000     3.180000000
C    -1.679000000    -3.311000000     4.057000000
C    -0.364000000    -3.556000000     4.467000000
H     0.250000000    -2.746000000     4.851000000
C    -1.987000000    -1.797000000     3.900000000
O    -3.406000000    -1.667000000     3.707000000
H    -1.502000000    -1.513000000     2.955000000
O    -1.414000000    -0.999000000     5.022000000
C    -0.967000000     0.300000000     4.735000000
C     0.395000000     0.448000000     4.421000000
H     1.083000000    -0.391000000     4.487000000
C     0.881000000     1.660000000     4.012000000
O     2.175000000     1.712000000     3.749000000
C     0.033000000     2.735000000     3.792000000
C     0.682000000     4.039000000     3.443000000
H     0.111000000     4.886000000     3.830000000
C     0.971000000     4.215000000     1.992000000
C    -0.001000000     4.926000000     1.301000000
H    -0.872000000     5.224000000     1.879000000
H     1.635000000     4.105000000     3.971000000
C    -1.301000000     2.623000000     4.195000000
H    -1.995000000     3.453000000     4.096000000
C    -1.813000000     1.364000000     4.544000000
C    -3.337000000     1.143000000     4.512000000
H    -3.881000000     2.047000000     4.793000000
H    -3.554000000     0.369000000     5.251000000
C    -3.798000000     0.676000000     3.160000000
C    -4.361000000     1.654000000     2.297000000
H    -4.392000000     2.655000000     2.718000000
C    -3.764000000    -0.661000000     2.794000000
C    -4.289000000    -0.990000000     1.532000000
H    -4.390000000    -2.014000000     1.181000000
C    -4.486000000     0.000000000     0.551000000
O    -4.545000000    -0.432000000    -0.786000000
C    -3.470000000    -0.027000000    -1.651000000
C    -2.953000000    -1.270000000    -2.435000000
C    -2.732000000    -1.277000000    -3.832000000
H    -2.919000000    -0.343000000    -4.355000000
C    -2.705000000    -2.443000000    -1.716000000
H    -2.844000000    -2.387000000    -0.640000000
O    -3.834000000     1.070000000    -2.447000000
H    -2.662000000     0.179000000    -0.934000000
C    -4.593000000     1.345000000     0.949000000
C    -4.898000000     2.448000000    -0.042000000
H    -5.312000000     3.340000000     0.434000000
H    -5.712000000     2.013000000    -0.626000000
C    -3.783000000     2.923000000    -0.878000000
C    -3.090000000     4.100000000    -0.478000000
H    -3.358000000     4.645000000     0.423000000
C    -3.449000000     2.303000000    -2.116000000
C    -2.490000000     2.926000000    -2.923000000
H    -2.327000000     2.539000000    -3.925000000
C    -1.839000000     4.031000000    -2.536000000
O    -0.764000000     4.476000000    -3.291000000
C     0.593000000     3.994000000    -2.817000000
C     1.497000000     3.437000000    -3.938000000
C     0.860000000     2.754000000    -5.004000000
H    -0.223000000     2.685000000    -5.071000000
C     2.849000000     3.203000000    -3.714000000
H     3.458000000     3.674000000    -2.946000000
O     1.293000000     5.002000000    -2.068000000
H     0.533000000     3.154000000    -2.109000000
C    -2.112000000     4.597000000    -1.303000000
C    -1.182000000     5.693000000    -0.702000000
H    -1.713000000     6.202000000     0.105000000
H    -1.014000000     6.426000000    -1.493000000
C     0.058000000     5.104000000    -0.051000000
C     1.215000000     4.756000000    -0.733000000
C     2.226000000     4.119000000    -0.069000000
H     3.105000000     3.803000000    -0.626000000
C     2.084000000     3.780000000     1.283000000
O     2.985000000     2.945000000     1.932000000
C     2.550000000     1.622000000     2.310000000
H     1.735000000     1.243000000     1.676000000
C     3.669000000     0.561000000     2.078000000
C     3.929000000    -0.573000000     2.857000000
H     3.437000000    -0.735000000     3.813000000
C     4.405000000     0.655000000     0.909000000
H     4.174000000     1.396000000     0.148000000
C     5.304000000    -0.301000000     0.548000000
O     6.000000000    -0.179000000    -0.670000000
C     5.452000000    -1.479000000     1.246000000
H     6.141000000    -2.232000000     0.874000000
C     4.740000000    -1.645000000     2.413000000
O     4.985000000    -2.844000000     3.021000000
C     4.203000000    -3.282000000     4.083000000
C     3.026000000    -3.998000000     3.881000000
H     2.767000000    -4.327000000     2.877000000
C     4.511000000    -2.883000000     5.357000000
H     5.414000000    -2.290000000     5.476000000
C     3.802000000    -3.242000000     6.463000000
H     4.099000000    -2.939000000     7.464000000
C     2.718000000    -4.096000000     6.291000000
H     2.099000000    -4.385000000     7.137000000
C     2.325000000    -4.433000000     4.956000000
O     1.257000000    -5.298000000     4.829000000
C     0.121000000    -4.873000000     4.328000000
C    -0.687000000    -5.805000000     3.701000000
H    -0.319000000    -6.827000000     3.720000000
C    -1.945000000    -5.540000000     3.275000000
O    -2.635000000    -6.525000000     2.560000000
C    -2.948000000    -6.484000000     1.212000000
C    -2.389000000    -5.487000000     0.427000000
H    -1.511000000    -4.988000000     0.830000000
C    -3.736000000    -7.509000000     0.635000000
H    -4.145000000    -8.245000000     1.323000000
C    -3.874000000    -7.502000000    -0.763000000
H    -4.410000000    -8.302000000    -1.268000000
C    -3.184000000    -6.588000000    -1.514000000
H    -3.200000000    -6.726000000    -2.593000000
C    -2.409000000    -5.557000000    -0.914000000
O    -1.684000000    -4.685000000    -1.639000000
C    -2.212000000    -3.640000000    -2.365000000
C    -1.900000000    -3.551000000    -3.689000000
H    -1.381000000    -4.402000000    -4.124000000
C    -2.100000000    -2.376000000    -4.439000000
O    -1.687000000    -2.331000000    -5.765000000
C    -1.596000000    -1.186000000    -6.473000000
C    -0.472000000    -0.432000000    -6.258000000
H     0.233000000    -0.801000000    -5.518000000
C    -2.530000000    -0.874000000    -7.468000000
H    -3.407000000    -1.463000000    -7.726000000
C    -2.295000000     0.311000000    -8.223000000
H    -3.037000000     0.598000000    -8.964000000
C    -1.170000000     1.139000000    -7.993000000
H    -1.073000000     2.104000000    -8.483000000
C    -0.240000000     0.741000000    -6.999000000
O     0.954000000     1.450000000    -6.986000000
C     1.570000000     2.022000000    -5.931000000
C     2.935000000     2.013000000    -5.820000000
H     3.428000000     1.592000000    -6.692000000
C     3.547000000     2.588000000    -4.723000000
O     4.918000000     2.347000000    -4.565000000
C     5.602000000     2.290000000    -3.358000000
C     6.308000000     3.360000000    -2.794000000
H     6.583000000     4.255000000    -3.346000000
C     6.809000000     3.269000000    -1.517000000
H     7.280000000     4.126000000    -1.042000000
C     6.768000000     2.058000000    -0.821000000
H     7.227000000     1.943000000     0.158000000
C     6.035000000     1.034000000    -1.351000000
C     5.504000000     1.097000000    -2.657000000
H     4.896000000     0.329000000    -3.130000000
C     0.760000000    -2.444000000    -1.496000000
H     0.794000000    -3.496000000    -1.765000000
C     0.124000000    -2.097000000    -0.352000000
H    -0.248000000    -2.889000000     0.293000000
C    -0.172000000    -0.773000000    -0.087000000
H    -0.782000000    -0.469000000     0.727000000
C     0.384000000     0.224000000    -0.882000000
H     0.187000000     1.242000000    -0.557000000
C     1.207000000    -0.103000000    -1.997000000
H     1.710000000     0.655000000    -2.592000000
C     1.320000000    -1.458000000    -2.341000000
C     2.188000000    -1.885000000    -3.516000000
O     2.603000000    -1.009000000    -4.262000000
O     2.423000000    -3.042000000    -3.764000000
O     0.000000000    -5.934000000    -5.715000000
H    -0.021000000    -6.481000000    -4.930000000
H     0.930000000    -5.752000000    -5.854000000
O     2.248000000    -2.434000000    -9.166000000
H     1.738000000    -2.629000000    -8.381000000
H     3.124000000    -2.230000000    -8.839000000
O     8.061000000    -1.867000000    -1.161000000
H     8.070000000    -2.167000000    -0.252000000
H     7.142000000    -1.663000000    -1.336000000
O     7.687000000     0.008000000    -5.127000000
H     6.888000000    -0.507000000    -5.243000000
H     7.612000000     0.715000000    -5.768000000
O     3.746000000    -6.995000000    -0.083000000
H     3.179000000    -7.070000000     0.685000000
H     3.205000000    -6.552000000    -0.737000000
O     4.444000000    -1.390000000    -8.147000000
H     5.166000000    -0.801000000    -8.365000000
H     4.360000000    -1.325000000    -7.196000000
O    -0.823000000    -7.704000000    -3.731000000
H    -0.231000000    -8.366000000    -3.373000000
H    -1.664000000    -8.154000000    -3.810000000
O     2.856000000    -5.631000000    -7.711000000
H     2.082000000    -5.744000000    -8.263000000
H     2.630000000    -4.905000000    -7.129000000
O     5.672000000    -4.302000000    -1.761000000
H     5.287000000    -4.471000000    -2.621000000
H     4.998000000    -3.815000000    -1.288000000
O     5.667000000    -5.651000000    -7.930000000
H     4.713000000    -5.657000000    -8.008000000
H     5.934000000    -4.818000000    -8.319000000
O     7.837000000    -4.204000000    -4.929000000
H     8.192000000    -4.182000000    -4.040000000
H     6.953000000    -3.849000000    -4.842000000
O     1.190000000    -3.532000000    -6.282000000
H     0.365000000    -3.088000000    -6.084000000
H     1.684000000    -3.496000000    -5.463000000
O     5.186000000    -1.108000000    -5.256000000
H     5.253000000    -2.061000000    -5.188000000
H     4.322000000    -0.903000000    -4.900000000
O     1.455000000    -5.115000000     1.049000000
H     1.385000000    -5.715000000     1.791000000
H     1.072000000    -5.596000000     0.315000000
O     4.243000000    -6.555000000    -3.923000000
H     3.665000000    -7.311000000    -4.027000000
H     5.012000000    -6.901000000    -3.471000000
O     3.344000000    -3.534000000    -0.168000000
H     2.881000000    -2.696000000    -0.160000000
H     2.718000000    -4.157000000     0.202000000
O     5.023000000    -4.039000000    -4.576000000
H     4.333000000    -3.624000000    -4.058000000
H     4.803000000    -4.971000000    -4.564000000
O     2.202000000    -5.568000000    -2.646000000
H     2.955000000    -6.078000000    -2.945000000
H     2.283000000    -4.732000000    -3.104000000
O     0.456000000    -6.675000000    -0.910000000
H    -0.336000000    -6.743000000    -1.444000000
H     1.129000000    -6.370000000    -1.519000000
