215
-1443.00836
C    -2.723000000    -4.097000000     2.432000000
H    -3.720000000    -3.760000000     2.160000000
C    -1.833000000    -3.203000000     2.963000000
C    -0.501000000    -3.606000000     3.283000000
H     0.282000000    -3.016000000     3.754000000
C    -2.163000000    -1.712000000     3.216000000
O    -3.557000000    -1.489000000     3.425000000
H    -1.731000000    -1.163000000     2.367000000
O    -1.558000000    -1.285000000     4.483000000
C    -1.120000000     0.026000000     4.561000000
C     0.284000000     0.123000000     4.525000000
H     0.852000000    -0.803000000     4.480000000
C     0.859000000     1.367000000     4.529000000
O     2.260000000     1.353000000     4.252000000
C     0.113000000     2.538000000     4.319000000
C     0.679000000     3.940000000     4.081000000
H     0.058000000     4.691000000     4.574000000
C     1.018000000     4.158000000     2.570000000
C     0.055000000     4.786000000     1.746000000
H    -0.878000000     5.107000000     2.202000000
H     1.629000000     3.923000000     4.619000000
C    -1.282000000     2.401000000     4.258000000
H    -1.893000000     3.295000000     4.171000000
C    -1.939000000     1.182000000     4.422000000
C    -3.464000000     1.185000000     4.492000000
H    -3.812000000     2.134000000     4.904000000
H    -3.725000000     0.523000000     5.320000000
C    -4.136000000     0.916000000     3.188000000
C    -4.531000000     1.943000000     2.277000000
H    -4.561000000     2.982000000     2.592000000
C    -4.109000000    -0.406000000     2.705000000
C    -4.492000000    -0.687000000     1.454000000
H    -4.423000000    -1.694000000     1.051000000
C    -4.804000000     0.222000000     0.548000000
O    -4.854000000    -0.280000000    -0.761000000
C    -3.727000000    -0.147000000    -1.676000000
C    -3.464000000    -1.340000000    -2.642000000
C    -2.532000000    -1.195000000    -3.675000000
H    -2.195000000    -0.197000000    -3.943000000
C    -3.876000000    -2.642000000    -2.337000000
H    -4.623000000    -2.844000000    -1.573000000
O    -3.933000000     1.103000000    -2.351000000
H    -2.875000000    -0.039000000    -0.989000000
C    -4.787000000     1.593000000     0.928000000
C    -5.051000000     2.588000000    -0.155000000
H    -5.504000000     3.542000000     0.121000000
H    -5.666000000     2.045000000    -0.875000000
C    -3.866000000     3.020000000    -0.967000000
C    -2.992000000     3.967000000    -0.467000000
H    -3.310000000     4.534000000     0.405000000
C    -3.279000000     2.244000000    -1.957000000
C    -2.070000000     2.561000000    -2.587000000
H    -1.800000000     1.965000000    -3.455000000
C    -1.295000000     3.604000000    -2.139000000
O    -0.095000000     3.862000000    -2.835000000
C     1.202000000     3.460000000    -2.275000000
C     2.162000000     2.883000000    -3.314000000
C     1.594000000     2.229000000    -4.440000000
H     0.509000000     2.249000000    -4.502000000
C     3.536000000     3.076000000    -3.187000000
H     3.990000000     3.598000000    -2.349000000
O     1.708000000     4.563000000    -1.534000000
H     1.085000000     2.615000000    -1.580000000
C    -1.766000000     4.379000000    -1.051000000
C    -0.912000000     5.540000000    -0.506000000
H    -1.541000000     6.258000000     0.023000000
H    -0.644000000     6.057000000    -1.430000000
C     0.246000000     4.961000000     0.340000000
C     1.498000000     4.614000000    -0.167000000
C     2.469000000     4.074000000     0.660000000
H     3.387000000     3.715000000     0.203000000
C     2.225000000     3.789000000     1.987000000
O     3.117000000     3.108000000     2.740000000
C     2.727000000     1.668000000     2.910000000
H     1.888000000     1.482000000     2.223000000
C     3.952000000     0.780000000     2.446000000
C     4.071000000    -0.507000000     2.992000000
H     3.372000000    -0.904000000     3.724000000
C     4.828000000     1.115000000     1.407000000
H     4.778000000     2.108000000     0.967000000
C     5.734000000     0.186000000     0.968000000
O     6.670000000     0.493000000     0.025000000
C     5.774000000    -1.059000000     1.529000000
H     6.516000000    -1.789000000     1.216000000
C     4.948000000    -1.484000000     2.541000000
O     4.876000000    -2.835000000     2.840000000
C     3.978000000    -3.401000000     3.671000000
C     2.923000000    -4.127000000     3.119000000
H     2.761000000    -4.315000000     2.061000000
C     4.095000000    -3.282000000     5.036000000
H     4.936000000    -2.741000000     5.462000000
C     3.110000000    -3.843000000     5.928000000
H     3.210000000    -3.699000000     7.001000000
C     2.099000000    -4.603000000     5.322000000
H     1.361000000    -5.065000000     5.973000000
C     2.015000000    -4.788000000     3.960000000
O     1.006000000    -5.550000000     3.416000000
C    -0.221000000    -4.960000000     3.203000000
C    -1.161000000    -5.829000000     2.665000000
H    -0.821000000    -6.852000000     2.524000000
C    -2.398000000    -5.420000000     2.265000000
O    -3.268000000    -6.358000000     1.682000000
C    -3.990000000    -6.293000000     0.536000000
C    -3.575000000    -5.505000000    -0.527000000
H    -2.564000000    -5.112000000    -0.588000000
C    -5.195000000    -7.042000000     0.449000000
H    -5.436000000    -7.700000000     1.280000000
C    -5.983000000    -6.933000000    -0.677000000
H    -6.943000000    -7.443000000    -0.670000000
C    -5.565000000    -6.144000000    -1.734000000
H    -6.078000000    -6.103000000    -2.692000000
C    -4.299000000    -5.546000000    -1.704000000
O    -3.849000000    -5.048000000    -2.906000000
C    -3.445000000    -3.776000000    -3.071000000
C    -2.537000000    -3.623000000    -4.101000000
H    -2.132000000    -4.444000000    -4.688000000
C    -2.105000000    -2.324000000    -4.385000000
O    -1.114000000    -2.249000000    -5.350000000
C    -0.930000000    -1.103000000    -6.094000000
C     0.260000000    -0.386000000    -5.883000000
H     0.923000000    -0.734000000    -5.095000000
C    -1.826000000    -0.691000000    -7.031000000
H    -2.733000000    -1.289000000    -7.042000000
C    -1.525000000     0.392000000    -7.832000000
H    -2.214000000     0.805000000    -8.565000000
C    -0.298000000     1.076000000    -7.660000000
H    -0.057000000     1.925000000    -8.294000000
C     0.625000000     0.678000000    -6.697000000
O     1.853000000     1.258000000    -6.652000000
C     2.408000000     1.803000000    -5.491000000
C     3.758000000     1.949000000    -5.340000000
H     4.352000000     1.579000000    -6.171000000
C     4.359000000     2.607000000    -4.248000000
O     5.706000000     2.790000000    -4.148000000
C     6.416000000     2.636000000    -2.963000000
C     7.543000000     3.512000000    -2.791000000
H     7.756000000     4.256000000    -3.555000000
C     8.204000000     3.380000000    -1.583000000
H     8.963000000     4.133000000    -1.384000000
C     7.833000000     2.432000000    -0.640000000
H     8.469000000     2.334000000     0.236000000
C     6.712000000     1.647000000    -0.762000000
C     6.068000000     1.713000000    -1.976000000
H     5.176000000     1.134000000    -2.199000000
C     0.626000000    -2.167000000    -2.004000000
H     0.522000000    -3.021000000    -2.669000000
C    -0.389000000    -1.682000000    -1.100000000
H    -1.357000000    -2.152000000    -0.947000000
C    -0.081000000    -0.509000000    -0.379000000
H    -0.807000000    -0.095000000     0.264000000
C     1.130000000     0.088000000    -0.559000000
H     1.379000000     1.024000000    -0.066000000
C     2.086000000    -0.407000000    -1.445000000
H     2.980000000     0.179000000    -1.641000000
C     1.896000000    -1.642000000    -2.121000000
C     2.922000000    -2.192000000    -3.072000000
O     4.096000000    -1.864000000    -2.892000000
O     2.625000000    -3.111000000    -3.790000000
O     2.961000000    -7.487000000    -5.970000000
H     2.092000000    -7.149000000    -6.188000000
H     2.815000000    -8.411000000    -5.765000000
O     0.437000000    -6.345000000    -5.716000000
H     0.395000000    -6.227000000    -4.767000000
H     0.851000000    -5.545000000    -6.039000000
O     2.767000000    -4.666000000    -8.027000000
H     1.997000000    -4.483000000    -7.488000000
H     3.430000000    -4.051000000    -7.715000000
O     8.235000000    -1.012000000    -1.855000000
H     7.796000000    -0.618000000    -1.101000000
H     8.214000000    -1.953000000    -1.680000000
O     6.900000000     0.701000000    -6.537000000
H     6.564000000     0.571000000    -5.650000000
H     7.307000000     1.567000000    -6.514000000
O     4.723000000    -6.528000000     0.015000000
H     3.967000000    -6.168000000     0.478000000
H     4.951000000    -5.857000000    -0.629000000
O     4.916000000    -1.388000000    -6.826000000
H     5.075000000    -0.520000000    -7.198000000
H     5.116000000    -1.290000000    -5.895000000
O     2.467000000    -8.427000000    -1.334000000
H     2.280000000    -9.236000000    -1.810000000
H     3.037000000    -7.929000000    -1.920000000
O     7.196000000    -4.992000000    -2.890000000
H     6.866000000    -5.848000000    -3.164000000
H     6.631000000    -4.741000000    -2.159000000
O     7.967000000    -5.314000000    -5.553000000
H     7.177000000    -4.833000000    -5.798000000
H     7.989000000    -5.268000000    -4.597000000
O     1.298000000    -3.723000000    -5.848000000
H     0.447000000    -3.285000000    -5.821000000
H     1.723000000    -3.469000000    -5.029000000
O     6.182000000    -0.579000000    -4.075000000
H     6.687000000    -0.112000000    -3.410000000
H     5.506000000    -1.044000000    -3.581000000
O     4.123000000    -7.050000000    -3.381000000
H     3.977000000    -7.470000000    -4.229000000
H     4.950000000    -7.419000000    -3.070000000
O     4.887000000    -4.012000000    -1.339000000
H     4.413000000    -3.246000000    -1.663000000
H     5.519000000    -3.656000000    -0.715000000
O     4.632000000    -4.482000000    -4.765000000
H     4.006000000    -3.862000000    -4.390000000
H     4.376000000    -5.330000000    -4.402000000
O     2.661000000    -1.158000000    -8.690000000
H     2.539000000    -0.324000000    -8.235000000
H     3.592000000    -1.355000000    -8.583000000
O     1.775000000    -5.671000000    -3.433000000
H     2.509000000    -6.065000000    -2.961000000
H     1.952000000    -4.731000000    -3.410000000
O    -0.115000000    -6.101000000    -1.003000000
H    -0.080000000    -6.491000000    -1.876000000
H     0.457000000    -5.335000000    -1.060000000
O     5.476000000    -3.893000000    -7.146000000
H     5.129000000    -4.343000000    -6.376000000
H     5.334000000    -2.964000000    -6.964000000
