215
-1469.35794
C    -1.169000000    -4.533000000     2.592000000
H    -2.099000000    -4.393000000     2.047000000
C    -0.709000000    -3.590000000     3.479000000
C     0.372000000    -3.850000000     4.301000000
H     0.691000000    -3.153000000     5.072000000
C    -1.419000000    -2.195000000     3.521000000
O    -2.796000000    -2.294000000     3.321000000
H    -1.013000000    -1.639000000     2.663000000
O    -0.975000000    -1.460000000     4.673000000
C    -0.709000000    -0.126000000     4.540000000
C     0.655000000     0.282000000     4.504000000
H     1.431000000    -0.475000000     4.585000000
C     0.919000000     1.607000000     4.156000000
O     2.170000000     1.854000000     3.788000000
C    -0.108000000     2.552000000     4.026000000
C     0.176000000     4.003000000     3.683000000
H    -0.637000000     4.640000000     4.036000000
C     0.343000000     4.240000000     2.185000000
C    -0.725000000     4.611000000     1.441000000
H    -1.676000000     4.662000000     1.965000000
H     1.110000000     4.254000000     4.190000000
C    -1.427000000     2.186000000     4.206000000
H    -2.149000000     2.982000000     4.043000000
C    -1.687000000     0.860000000     4.458000000
C    -3.142000000     0.442000000     4.459000000
H    -3.812000000     1.284000000     4.643000000
H    -3.224000000    -0.206000000     5.334000000
C    -3.613000000    -0.047000000     3.068000000
C    -4.195000000     0.909000000     2.310000000
H    -4.116000000     1.954000000     2.601000000
C    -3.392000000    -1.309000000     2.579000000
C    -3.918000000    -1.663000000     1.352000000
H    -3.725000000    -2.702000000     1.101000000
C    -4.574000000    -0.747000000     0.569000000
O    -4.741000000    -1.117000000    -0.713000000
C    -3.728000000    -0.696000000    -1.623000000
C    -3.317000000    -1.801000000    -2.527000000
C    -2.585000000    -1.517000000    -3.723000000
H    -2.494000000    -0.476000000    -4.025000000
C    -3.450000000    -3.129000000    -2.118000000
H    -3.909000000    -3.404000000    -1.171000000
O    -4.288000000     0.429000000    -2.318000000
H    -2.831000000    -0.391000000    -1.063000000
C    -4.662000000     0.566000000     1.043000000
C    -5.259000000     1.662000000     0.134000000
H    -5.719000000     2.475000000     0.700000000
H    -6.056000000     1.235000000    -0.478000000
C    -4.195000000     2.248000000    -0.747000000
C    -3.557000000     3.422000000    -0.343000000
H    -3.738000000     3.790000000     0.664000000
C    -3.810000000     1.665000000    -1.949000000
C    -2.805000000     2.293000000    -2.776000000
H    -2.448000000     1.765000000    -3.657000000
C    -2.224000000     3.494000000    -2.371000000
O    -1.197000000     3.959000000    -3.079000000
C     0.086000000     3.632000000    -2.635000000
C     1.008000000     3.344000000    -3.803000000
C     0.541000000     2.558000000    -4.890000000
H    -0.535000000     2.470000000    -5.018000000
C     2.381000000     3.468000000    -3.640000000
H     2.801000000     3.939000000    -2.755000000
O     0.693000000     4.775000000    -1.936000000
H     0.077000000     2.730000000    -2.007000000
C    -2.563000000     4.049000000    -1.118000000
C    -1.888000000     5.277000000    -0.595000000
H    -2.587000000     5.874000000    -0.005000000
H    -1.622000000     5.953000000    -1.411000000
C    -0.651000000     4.857000000     0.087000000
C     0.612000000     4.714000000    -0.548000000
C     1.780000000     4.260000000     0.123000000
H     2.680000000     4.111000000    -0.469000000
C     1.535000000     3.888000000     1.486000000
O     2.600000000     3.207000000     2.064000000
C     2.353000000     1.824000000     2.438000000
H     1.515000000     1.507000000     1.799000000
C     3.628000000     1.032000000     2.068000000
C     4.138000000     0.001000000     2.851000000
H     3.610000000    -0.259000000     3.765000000
C     4.264000000     1.299000000     0.857000000
H     3.951000000     2.093000000     0.184000000
C     5.385000000     0.554000000     0.440000000
O     5.986000000     0.681000000    -0.807000000
C     5.795000000    -0.559000000     1.237000000
H     6.547000000    -1.240000000     0.845000000
C     5.166000000    -0.783000000     2.430000000
O     5.475000000    -1.939000000     3.129000000
C     4.747000000    -2.456000000     4.156000000
C     3.948000000    -3.523000000     3.913000000
H     3.915000000    -4.039000000     2.957000000
C     4.764000000    -1.789000000     5.407000000
H     5.406000000    -0.922000000     5.541000000
C     3.907000000    -2.228000000     6.437000000
H     3.813000000    -1.811000000     7.436000000
C     3.132000000    -3.364000000     6.252000000
H     2.392000000    -3.743000000     6.953000000
C     3.122000000    -3.984000000     4.943000000
O     2.326000000    -5.119000000     4.822000000
C     1.178000000    -4.981000000     4.058000000
C     0.725000000    -5.934000000     3.191000000
H     1.358000000    -6.812000000     3.086000000
C    -0.430000000    -5.726000000     2.446000000
O    -0.921000000    -6.701000000     1.615000000
C    -2.042000000    -6.623000000     0.794000000
C    -1.797000000    -6.148000000    -0.485000000
H    -0.761000000    -5.938000000    -0.736000000
C    -3.316000000    -6.900000000     1.275000000
H    -3.470000000    -7.221000000     2.302000000
C    -4.387000000    -6.745000000     0.440000000
H    -5.446000000    -6.773000000     0.683000000
C    -4.205000000    -6.271000000    -0.861000000
H    -5.006000000    -5.963000000    -1.528000000
C    -2.921000000    -5.955000000    -1.313000000
O    -2.776000000    -5.482000000    -2.602000000
C    -2.838000000    -4.151000000    -2.952000000
C    -2.204000000    -3.851000000    -4.124000000
H    -1.788000000    -4.737000000    -4.596000000
C    -1.918000000    -2.513000000    -4.418000000
O    -1.037000000    -2.211000000    -5.454000000
C    -1.085000000    -1.127000000    -6.213000000
C    -0.003000000    -0.281000000    -6.234000000
H     0.857000000    -0.523000000    -5.615000000
C    -2.125000000    -0.825000000    -7.101000000
H    -2.950000000    -1.533000000    -7.115000000
C    -2.105000000     0.223000000    -7.972000000
H    -2.965000000     0.393000000    -8.614000000
C    -0.937000000     0.984000000    -8.026000000
H    -0.972000000     1.911000000    -8.593000000
C     0.044000000     0.752000000    -7.147000000
O     1.106000000     1.573000000    -7.096000000
C     1.444000000     2.233000000    -5.912000000
C     2.790000000     2.445000000    -5.791000000
H     3.535000000     2.238000000    -6.555000000
C     3.265000000     2.992000000    -4.629000000
O     4.565000000     3.326000000    -4.533000000
C     5.162000000     3.202000000    -3.330000000
C     5.834000000     4.296000000    -2.826000000
H     5.728000000     5.238000000    -3.357000000
C     6.469000000     4.243000000    -1.548000000
H     6.917000000     5.097000000    -1.047000000
C     6.551000000     3.020000000    -0.878000000
H     7.042000000     3.057000000     0.091000000
C     5.944000000     1.884000000    -1.449000000
C     5.218000000     1.960000000    -2.665000000
H     4.645000000     1.082000000    -2.952000000
C     0.134000000    -2.330000000    -1.037000000
H    -0.317000000    -3.292000000    -1.264000000
C    -0.653000000    -1.495000000    -0.288000000
H    -1.667000000    -1.746000000     0.015000000
C    -0.250000000    -0.161000000    -0.098000000
H    -0.880000000     0.512000000     0.472000000
C     1.004000000     0.210000000    -0.526000000
H     1.319000000     1.230000000    -0.321000000
C     1.836000000    -0.695000000    -1.252000000
H     2.838000000    -0.418000000    -1.569000000
C     1.329000000    -1.941000000    -1.504000000
C     2.120000000    -2.862000000    -2.356000000
O     3.322000000    -2.769000000    -2.436000000
O     1.704000000    -3.964000000    -2.568000000
O     4.273000000    -8.332000000    -5.547000000
H     3.674000000    -7.631000000    -5.289000000
H     3.739000000    -9.126000000    -5.516000000
O     1.745000000    -7.100000000    -5.936000000
H     1.603000000    -6.259000000    -5.502000000
H     1.627000000    -6.911000000    -6.867000000
O     1.790000000    -8.994000000    -2.597000000
H     2.474000000    -8.376000000    -2.853000000
H     1.432000000    -8.633000000    -1.786000000
O     6.490000000     0.019000000    -4.929000000
H     6.585000000     0.625000000    -5.664000000
H     5.632000000    -0.384000000    -5.061000000
O     1.553000000    -8.123000000     0.462000000
H     1.516000000    -7.167000000     0.491000000
H     2.453000000    -8.321000000     0.202000000
O     4.244000000    -3.783000000     0.085000000
H     4.921000000    -3.190000000     0.412000000
H     4.147000000    -3.550000000    -0.838000000
O     3.521000000    -1.250000000    -7.472000000
H     3.931000000    -0.669000000    -8.113000000
H     3.926000000    -1.011000000    -6.638000000
O    -0.109000000    -6.609000000    -3.083000000
H     0.734000000    -6.775000000    -3.505000000
H    -0.453000000    -5.837000000    -3.532000000
O     6.338000000    -4.187000000    -6.608000000
H     6.359000000    -3.573000000    -7.342000000
H     5.414000000    -4.231000000    -6.360000000
O     8.013000000    -3.468000000    -4.577000000
H     7.182000000    -3.441000000    -4.103000000
H     7.762000000    -3.592000000    -5.493000000
O     1.188000000    -4.303000000    -5.204000000
H     0.566000000    -3.615000000    -5.441000000
H     1.257000000    -4.245000000    -4.251000000
O     4.020000000    -1.147000000    -4.726000000
H     3.617000000    -1.322000000    -3.875000000
H     4.507000000    -1.945000000    -4.930000000
O     4.473000000    -5.972000000     1.861000000
H     3.666000000    -6.470000000     1.988000000
H     4.227000000    -5.267000000     1.261000000
O     5.584000000    -6.218000000    -3.302000000
H     6.060000000    -6.754000000    -3.936000000
H     5.916000000    -6.504000000    -2.450000000
O     6.728000000    -2.963000000    -1.458000000
H     6.231000000    -3.087000000    -2.267000000
H     7.457000000    -2.396000000    -1.708000000
O     5.474000000    -3.603000000    -3.757000000
H     4.635000000    -3.368000000    -3.362000000
H     5.559000000    -4.543000000    -3.599000000
O     2.895000000    -6.551000000    -3.164000000
H     3.837000000    -6.492000000    -3.323000000
H     2.619000000    -5.646000000    -3.020000000
O     1.879000000    -5.334000000    -0.242000000
H     2.789000000    -5.053000000    -0.331000000
H     1.385000000    -4.728000000    -0.793000000
O     3.558000000    -3.700000000    -6.215000000
H     2.884000000    -3.863000000    -5.555000000
H     3.318000000    -2.856000000    -6.598000000
