215
-1461.94783
C    -2.894000000    -4.047000000     2.054000000
H    -3.771000000    -3.805000000     1.460000000
C    -2.293000000    -3.167000000     2.992000000
C    -1.251000000    -3.555000000     3.807000000
H    -0.702000000    -2.876000000     4.454000000
C    -2.675000000    -1.694000000     3.037000000
O    -4.062000000    -1.581000000     2.559000000
H    -2.082000000    -1.156000000     2.282000000
O    -2.590000000    -1.131000000     4.341000000
C    -2.025000000     0.078000000     4.382000000
C    -0.687000000     0.305000000     4.635000000
H     0.046000000    -0.493000000     4.723000000
C    -0.100000000     1.530000000     4.377000000
O     1.288000000     1.540000000     4.398000000
C    -0.878000000     2.650000000     4.013000000
C    -0.191000000     3.998000000     3.720000000
H    -0.955000000     4.740000000     3.962000000
C     0.377000000     4.177000000     2.357000000
C    -0.404000000     4.758000000     1.332000000
H    -1.423000000     5.018000000     1.605000000
H     0.650000000     4.129000000     4.404000000
C    -2.264000000     2.481000000     3.943000000
H    -2.850000000     3.323000000     3.585000000
C    -2.867000000     1.208000000     4.070000000
C    -4.290000000     1.125000000     3.643000000
H    -4.781000000     2.056000000     3.934000000
H    -4.814000000     0.314000000     4.153000000
C    -4.318000000     0.765000000     2.141000000
C    -4.469000000     1.751000000     1.143000000
H    -4.694000000     2.790000000     1.369000000
C    -4.271000000    -0.584000000     1.732000000
C    -4.373000000    -0.956000000     0.396000000
H    -4.516000000    -1.998000000     0.120000000
C    -4.480000000     0.042000000    -0.576000000
O    -4.521000000    -0.328000000    -1.869000000
C    -3.255000000    -0.094000000    -2.569000000
C    -2.666000000    -1.322000000    -3.282000000
C    -1.466000000    -1.182000000    -3.997000000
H    -0.932000000    -0.252000000    -4.177000000
C    -3.168000000    -2.566000000    -3.077000000
H    -4.058000000    -2.792000000    -2.495000000
O    -3.414000000     1.089000000    -3.397000000
H    -2.521000000     0.064000000    -1.765000000
C    -4.523000000     1.376000000    -0.227000000
C    -4.702000000     2.496000000    -1.253000000
H    -5.077000000     3.362000000    -0.703000000
H    -5.376000000     2.426000000    -2.109000000
C    -3.412000000     3.021000000    -1.832000000
C    -2.698000000     4.112000000    -1.302000000
H    -3.138000000     4.651000000    -0.467000000
C    -2.748000000     2.221000000    -2.852000000
C    -1.588000000     2.671000000    -3.408000000
H    -1.134000000     2.163000000    -4.255000000
C    -0.887000000     3.686000000    -2.845000000
O     0.467000000     3.912000000    -3.224000000
C     1.467000000     3.400000000    -2.304000000
C     2.713000000     2.861000000    -3.070000000
C     2.423000000     2.339000000    -4.321000000
H     1.420000000     2.228000000    -4.726000000
C     4.012000000     3.049000000    -2.617000000
H     4.178000000     3.478000000    -1.632000000
O     1.811000000     4.574000000    -1.508000000
H     1.009000000     2.640000000    -1.654000000
C    -1.380000000     4.391000000    -1.742000000
C    -0.688000000     5.512000000    -0.994000000
H    -1.501000000     6.067000000    -0.520000000
H    -0.244000000     6.277000000    -1.633000000
C     0.154000000     4.965000000     0.102000000
C     1.387000000     4.507000000    -0.226000000
C     2.119000000     3.740000000     0.732000000
H     3.110000000     3.389000000     0.454000000
C     1.650000000     3.690000000     2.103000000
O     2.372000000     2.926000000     2.931000000
C     1.860000000     1.572000000     3.078000000
H     1.054000000     1.396000000     2.351000000
C     2.923000000     0.502000000     2.845000000
C     3.095000000    -0.546000000     3.749000000
H     2.487000000    -0.632000000     4.646000000
C     3.714000000     0.461000000     1.692000000
H     3.783000000     1.386000000     1.126000000
C     4.712000000    -0.497000000     1.540000000
O     5.471000000    -0.370000000     0.421000000
C     4.967000000    -1.438000000     2.483000000
H     5.710000000    -2.224000000     2.376000000
C     4.114000000    -1.479000000     3.603000000
O     4.345000000    -2.413000000     4.627000000
C     3.222000000    -2.970000000     5.249000000
C     2.312000000    -3.738000000     4.477000000
H     2.540000000    -3.956000000     3.437000000
C     2.970000000    -2.802000000     6.564000000
H     3.771000000    -2.480000000     7.225000000
C     1.857000000    -3.261000000     7.161000000
H     1.607000000    -3.035000000     8.195000000
C     0.949000000    -4.049000000     6.461000000
H     0.068000000    -4.458000000     6.949000000
C     1.220000000    -4.334000000     5.051000000
O     0.400000000    -5.232000000     4.401000000
C    -0.676000000    -4.873000000     3.702000000
C    -1.266000000    -5.712000000     2.791000000
H    -0.961000000    -6.748000000     2.910000000
C    -2.283000000    -5.306000000     1.921000000
O    -2.715000000    -6.307000000     1.045000000
C    -3.463000000    -6.038000000    -0.030000000
C    -2.836000000    -5.600000000    -1.243000000
H    -1.769000000    -5.420000000    -1.354000000
C    -4.809000000    -6.336000000    -0.023000000
H    -5.314000000    -6.726000000     0.856000000
C    -5.614000000    -6.123000000    -1.195000000
H    -6.671000000    -6.373000000    -1.221000000
C    -5.001000000    -5.606000000    -2.344000000
H    -5.601000000    -5.598000000    -3.250000000
C    -3.624000000    -5.377000000    -2.338000000
O    -3.017000000    -4.968000000    -3.428000000
C    -2.519000000    -3.657000000    -3.705000000
C    -1.467000000    -3.467000000    -4.622000000
H    -1.029000000    -4.379000000    -5.019000000
C    -0.906000000    -2.226000000    -4.761000000
O     0.193000000    -2.207000000    -5.517000000
C     0.537000000    -1.090000000    -6.232000000
C     1.600000000    -0.347000000    -5.842000000
H     2.131000000    -0.534000000    -4.912000000
C    -0.121000000    -0.733000000    -7.416000000
H    -0.947000000    -1.306000000    -7.829000000
C     0.280000000     0.394000000    -8.170000000
H    -0.162000000     0.546000000    -9.152000000
C     1.513000000     1.025000000    -7.908000000
H     1.844000000     1.801000000    -8.594000000
C     2.096000000     0.665000000    -6.649000000
O     3.284000000     1.344000000    -6.337000000
C     3.499000000     1.885000000    -5.085000000
C     4.814000000     2.023000000    -4.622000000
H     5.642000000     1.645000000    -5.216000000
C     5.113000000     2.661000000    -3.450000000
O     6.424000000     2.766000000    -2.934000000
C     6.629000000     2.318000000    -1.642000000
C     7.366000000     3.123000000    -0.767000000
H     7.799000000     4.060000000    -1.107000000
C     7.592000000     2.605000000     0.555000000
H     8.264000000     3.146000000     1.215000000
C     6.894000000     1.543000000     1.084000000
H     7.109000000     1.142000000     2.071000000
C     6.069000000     0.810000000     0.184000000
C     6.067000000     1.129000000    -1.199000000
H     5.334000000     0.545000000    -1.750000000
C     0.275000000    -2.068000000    -1.388000000
H     0.302000000    -3.101000000    -1.725000000
C    -0.833000000    -1.543000000    -0.689000000
H    -1.749000000    -2.116000000    -0.564000000
C    -0.753000000    -0.266000000    -0.150000000
H    -1.632000000     0.134000000     0.362000000
C     0.371000000     0.493000000    -0.359000000
H     0.253000000     1.500000000     0.032000000
C     1.504000000     0.022000000    -1.031000000
H     2.306000000     0.717000000    -1.267000000
C     1.423000000    -1.284000000    -1.576000000
C     2.631000000    -1.780000000    -2.311000000
O     3.504000000    -1.032000000    -2.672000000
O     2.842000000    -2.962000000    -2.378000000
O     0.420000000    -6.156000000    -3.021000000
H     0.883000000    -5.427000000    -3.434000000
H    -0.344000000    -6.301000000    -3.579000000
O     7.821000000    -0.750000000    -4.471000000
H     8.391000000    -0.090000000    -4.076000000
H     8.341000000    -1.553000000    -4.457000000
O     1.255000000    -3.610000000    -9.142000000
H     1.751000000    -4.193000000    -9.717000000
H     1.878000000    -3.357000000    -8.461000000
O     5.657000000    -6.612000000    -2.352000000
H     5.608000000    -5.742000000    -2.750000000
H     5.011000000    -6.588000000    -1.646000000
O     5.394000000    -4.382000000     0.137000000
H     6.319000000    -4.403000000     0.380000000
H     5.337000000    -3.701000000    -0.533000000
O    -0.073000000    -6.598000000    -6.044000000
H     0.662000000    -5.997000000    -5.919000000
H     0.171000000    -7.116000000    -6.811000000
O     5.977000000    -1.414000000    -7.692000000
H     6.126000000    -2.329000000    -7.453000000
H     5.884000000    -0.960000000    -6.855000000
O     5.143000000    -7.915000000     0.324000000
H     4.487000000    -7.231000000     0.193000000
H     4.636000000    -8.722000000     0.406000000
O     5.441000000    -5.303000000    -6.281000000
H     5.588000000    -6.159000000    -6.684000000
H     6.239000000    -4.809000000    -6.469000000
O     7.634000000    -3.060000000    -2.683000000
H     6.949000000    -2.733000000    -2.098000000
H     7.208000000    -3.756000000    -3.183000000
O     3.498000000    -3.024000000    -7.347000000
H     3.964000000    -2.261000000    -7.005000000
H     3.533000000    -3.664000000    -6.636000000
O     4.939000000    -4.209000000    -3.598000000
H     4.903000000    -4.075000000    -4.545000000
H     4.387000000    -3.516000000    -3.237000000
O     5.252000000    -1.147000000    -4.951000000
H     4.687000000    -0.903000000    -4.218000000
H     6.134000000    -0.911000000    -4.664000000
O     3.521000000    -8.416000000    -2.691000000
H     2.923000000    -8.198000000    -1.975000000
H     4.231000000    -7.779000000    -2.613000000
O     2.806000000    -6.038000000    -5.907000000
H     2.394000000    -5.515000000    -5.219000000
H     3.735000000    -6.046000000    -5.678000000
O     1.951000000    -4.186000000    -4.365000000
H     1.665000000    -3.456000000    -4.913000000
H     2.248000000    -3.774000000    -3.553000000
O     3.222000000    -6.025000000     1.212000000
H     2.847000000    -6.211000000     0.351000000
H     3.919000000    -5.392000000     1.037000000
O     5.471000000    -2.327000000    -1.434000000
H     5.406000000    -1.739000000    -0.682000000
H     4.790000000    -2.025000000    -2.034000000
O     2.973000000    -5.651000000    -1.626000000
H     2.064000000    -5.787000000    -1.894000000
H     3.195000000    -4.783000000    -1.964000000
