215
-1456.19198
C    -3.147000000    -4.011000000     1.396000000
H    -3.948000000    -3.483000000     0.885000000
C    -2.481000000    -3.289000000     2.349000000
C    -1.303000000    -3.873000000     2.867000000
H    -0.700000000    -3.223000000     3.496000000
C    -2.890000000    -1.852000000     2.726000000
O    -4.232000000    -1.487000000     2.205000000
H    -2.138000000    -1.222000000     2.228000000
O    -2.792000000    -1.507000000     4.083000000
C    -2.153000000    -0.302000000     4.268000000
C    -0.790000000    -0.362000000     4.418000000
H    -0.259000000    -1.308000000     4.366000000
C    -0.027000000     0.830000000     4.390000000
O     1.360000000     0.783000000     4.507000000
C    -0.680000000     2.077000000     4.322000000
C     0.055000000     3.451000000     4.328000000
H    -0.622000000     4.230000000     4.684000000
C     0.652000000     3.778000000     2.928000000
C    -0.081000000     4.456000000     1.942000000
H    -1.116000000     4.698000000     2.171000000
H     0.871000000     3.492000000     5.052000000
C    -2.025000000     2.091000000     4.112000000
H    -2.585000000     3.019000000     4.033000000
C    -2.803000000     0.945000000     4.095000000
C    -4.255000000     0.996000000     3.655000000
H    -4.682000000     1.971000000     3.898000000
H    -4.799000000     0.191000000     4.154000000
C    -4.359000000     0.917000000     2.106000000
C    -4.333000000     2.063000000     1.259000000
H    -4.240000000     3.078000000     1.637000000
C    -4.242000000    -0.337000000     1.560000000
C    -4.404000000    -0.489000000     0.154000000
H    -4.244000000    -1.483000000    -0.256000000
C    -4.430000000     0.610000000    -0.674000000
O    -4.401000000     0.409000000    -2.079000000
C    -3.187000000     0.573000000    -2.814000000
C    -3.033000000    -0.592000000    -3.752000000
C    -1.994000000    -0.599000000    -4.662000000
H    -1.338000000     0.267000000    -4.649000000
C    -3.765000000    -1.770000000    -3.668000000
H    -4.450000000    -2.012000000    -2.859000000
O    -3.160000000     1.812000000    -3.437000000
H    -2.313000000     0.458000000    -2.157000000
C    -4.405000000     1.881000000    -0.148000000
C    -4.455000000     3.087000000    -1.069000000
H    -4.939000000     3.954000000    -0.616000000
H    -5.102000000     2.788000000    -1.896000000
C    -3.096000000     3.435000000    -1.598000000
C    -2.330000000     4.321000000    -0.829000000
H    -2.750000000     4.720000000     0.091000000
C    -2.499000000     2.751000000    -2.677000000
C    -1.272000000     3.193000000    -3.127000000
H    -0.830000000     2.771000000    -4.026000000
C    -0.435000000     4.114000000    -2.399000000
O     0.879000000     4.287000000    -2.693000000
C     1.804000000     3.664000000    -1.770000000
C     2.958000000     2.990000000    -2.445000000
C     2.596000000     2.108000000    -3.506000000
H     1.544000000     2.062000000    -3.776000000
C     4.308000000     3.084000000    -2.088000000
H     4.581000000     3.664000000    -1.211000000
O     2.274000000     4.575000000    -0.839000000
H     1.313000000     2.808000000    -1.284000000
C    -1.046000000     4.730000000    -1.238000000
C    -0.311000000     5.628000000    -0.289000000
H    -0.965000000     6.333000000     0.229000000
H     0.391000000     6.299000000    -0.791000000
C     0.500000000     4.896000000     0.777000000
C     1.805000000     4.465000000     0.479000000
C     2.534000000     3.692000000     1.364000000
H     3.519000000     3.285000000     1.151000000
C     1.933000000     3.309000000     2.560000000
O     2.618000000     2.305000000     3.248000000
C     2.164000000     0.940000000     3.281000000
H     1.411000000     0.936000000     2.479000000
C     3.383000000    -0.039000000     3.200000000
C     3.287000000    -1.272000000     3.825000000
H     2.360000000    -1.376000000     4.382000000
C     4.539000000     0.280000000     2.513000000
H     4.744000000     1.168000000     1.921000000
C     5.469000000    -0.764000000     2.260000000
O     6.639000000    -0.686000000     1.554000000
C     5.279000000    -2.052000000     2.741000000
H     5.948000000    -2.868000000     2.481000000
C     4.204000000    -2.280000000     3.636000000
O     4.008000000    -3.501000000     4.238000000
C     2.886000000    -4.025000000     4.682000000
C     2.120000000    -4.684000000     3.678000000
H     2.546000000    -4.888000000     2.699000000
C     2.397000000    -3.776000000     5.967000000
H     2.893000000    -3.169000000     6.721000000
C     1.196000000    -4.297000000     6.346000000
H     0.906000000    -4.270000000     7.393000000
C     0.463000000    -5.055000000     5.419000000
H    -0.544000000    -5.370000000     5.678000000
C     0.881000000    -5.225000000     4.077000000
O     0.138000000    -5.818000000     3.087000000
C    -0.934000000    -5.209000000     2.543000000
C    -1.752000000    -5.932000000     1.678000000
H    -1.369000000    -6.908000000     1.390000000
C    -2.818000000    -5.339000000     1.017000000
O    -3.467000000    -6.054000000    -0.017000000
C    -4.324000000    -5.502000000    -0.975000000
C    -3.794000000    -5.026000000    -2.175000000
H    -2.741000000    -5.010000000    -2.445000000
C    -5.736000000    -5.447000000    -0.748000000
H    -6.142000000    -5.849000000     0.176000000
C    -6.551000000    -4.817000000    -1.710000000
H    -7.633000000    -4.810000000    -1.605000000
C    -6.045000000    -4.311000000    -2.903000000
H    -6.633000000    -3.905000000    -3.722000000
C    -4.699000000    -4.414000000    -3.198000000
O    -4.259000000    -4.002000000    -4.365000000
C    -3.499000000    -2.822000000    -4.525000000
C    -2.569000000    -2.773000000    -5.495000000
H    -2.368000000    -3.553000000    -6.225000000
C    -1.756000000    -1.684000000    -5.549000000
O    -0.719000000    -1.690000000    -6.438000000
C     0.197000000    -0.646000000    -6.530000000
C     1.352000000    -0.628000000    -5.872000000
H     1.460000000    -1.429000000    -5.145000000
C     0.006000000     0.249000000    -7.590000000
H    -0.903000000     0.122000000    -8.172000000
C     0.901000000     1.318000000    -7.767000000
H     0.681000000     2.131000000    -8.455000000
C     1.960000000     1.454000000    -6.873000000
H     2.683000000     2.257000000    -6.995000000
C     2.249000000     0.423000000    -6.019000000
O     3.305000000     0.448000000    -5.161000000
C     3.622000000     1.322000000    -4.144000000
C     4.956000000     1.462000000    -3.768000000
H     5.701000000     0.830000000    -4.243000000
C     5.290000000     2.284000000    -2.708000000
O     6.558000000     2.269000000    -2.235000000
C     6.818000000     2.010000000    -0.943000000
C     7.606000000     2.938000000    -0.300000000
H     7.922000000     3.822000000    -0.847000000
C     8.174000000     2.522000000     0.919000000
H     8.967000000     3.129000000     1.350000000
C     7.857000000     1.311000000     1.517000000
H     8.201000000     1.045000000     2.513000000
C     6.959000000     0.474000000     0.865000000
C     6.454000000     0.791000000    -0.355000000
H     5.841000000     0.056000000    -0.871000000
C     0.702000000    -1.945000000     0.054000000
H     0.085000000    -2.839000000     0.094000000
C     0.071000000    -0.735000000     0.113000000
H    -1.005000000    -0.759000000     0.267000000
C     0.848000000     0.401000000    -0.132000000
H     0.368000000     1.376000000     0.036000000
C     2.242000000     0.299000000    -0.350000000
H     2.780000000     1.238000000    -0.451000000
C     2.823000000    -0.879000000    -0.189000000
H     3.904000000    -0.898000000    -0.308000000
C     2.092000000    -2.101000000    -0.015000000
C     2.710000000    -3.454000000    -0.297000000
O     3.877000000    -3.663000000    -0.012000000
O     2.030000000    -4.255000000    -0.946000000
O    -1.238000000    -7.026000000    -2.143000000
H    -0.908000000    -6.157000000    -1.914000000
H    -1.315000000    -7.481000000    -1.305000000
O     6.144000000    -7.649000000    -4.188000000
H     5.899000000    -6.786000000    -3.853000000
H     7.071000000    -7.566000000    -4.409000000
O     6.799000000    -8.125000000     1.286000000
H     7.255000000    -7.586000000     1.931000000
H     5.882000000    -8.105000000     1.561000000
O     6.746000000    -6.120000000    -1.041000000
H     6.858000000    -6.879000000    -0.469000000
H     5.812000000    -6.111000000    -1.247000000
O     8.129000000    -5.644000000     2.134000000
H     7.243000000    -5.476000000     1.811000000
H     8.226000000    -5.058000000     2.884000000
O     1.712000000    -5.353000000    -4.476000000
H     1.250000000    -6.155000000    -4.233000000
H     1.208000000    -4.998000000    -5.208000000
O     1.401000000    -7.953000000     2.267000000
H     0.787000000    -7.535000000     2.871000000
H     0.844000000    -8.388000000     1.621000000
O     7.647000000    -1.445000000    -2.479000000
H     8.334000000    -1.083000000    -1.919000000
H     7.252000000    -2.141000000    -1.955000000
O     5.288000000    -2.375000000    -4.928000000
H     5.805000000    -1.964000000    -4.236000000
H     4.511000000    -2.709000000    -4.480000000
O     5.292000000    -6.573000000     4.496000000
H     5.542000000    -5.865000000     3.903000000
H     4.857000000    -7.214000000     3.935000000
O     6.504000000    -3.453000000    -0.680000000
H     6.635000000    -4.386000000    -0.850000000
H     5.576000000    -3.378000000    -0.455000000
O     3.068000000    -3.179000000    -3.800000000
H     2.623000000    -3.992000000    -4.036000000
H     2.715000000    -2.954000000    -2.939000000
O     4.232000000    -8.127000000     2.328000000
H     3.301000000    -7.969000000     2.171000000
H     4.326000000    -9.078000000     2.276000000
O    -0.234000000    -4.474000000    -2.333000000
H     0.126000000    -4.371000000    -3.214000000
H     0.500000000    -4.284000000    -1.750000000
O     8.839000000    -2.487000000     0.738000000
H     8.901000000    -2.633000000     1.682000000
H     7.900000000    -2.408000000     0.569000000
O     0.607000000    -6.469000000    -0.105000000
H     1.165000000    -5.896000000    -0.630000000
H     0.308000000    -5.917000000     0.618000000
O     5.255000000    -5.686000000     1.909000000
H     4.792000000    -5.235000000     1.203000000
H     4.779000000    -6.509000000     2.020000000
O     1.685000000    -8.151000000    -2.582000000
H     1.271000000    -7.579000000    -1.936000000
H     0.970000000    -8.409000000    -3.165000000
O     4.141000000    -6.043000000    -1.771000000
H     3.806000000    -5.256000000    -1.342000000
H     3.399000000    -6.377000000    -2.274000000
