215
-1440.04938
C    -2.058000000    -3.815000000     1.537000000
H    -2.554000000    -3.319000000     0.706000000
C    -1.971000000    -3.189000000     2.758000000
C    -1.289000000    -3.810000000     3.801000000
H    -1.050000000    -3.345000000     4.753000000
C    -2.515000000    -1.708000000     2.895000000
O    -3.867000000    -1.630000000     2.418000000
H    -1.877000000    -1.081000000     2.254000000
O    -2.557000000    -1.297000000     4.226000000
C    -2.037000000    -0.019000000     4.370000000
C    -0.661000000     0.085000000     4.605000000
H    -0.127000000    -0.839000000     4.808000000
C    -0.028000000     1.365000000     4.520000000
O     1.411000000     1.405000000     4.684000000
C    -0.695000000     2.478000000     4.116000000
C     0.033000000     3.833000000     3.881000000
H    -0.641000000     4.680000000     4.020000000
C     0.558000000     3.951000000     2.460000000
C    -0.251000000     4.491000000     1.470000000
H    -1.248000000     4.803000000     1.770000000
H     0.906000000     4.025000000     4.508000000
C    -2.105000000     2.319000000     3.871000000
H    -2.661000000     3.191000000     3.536000000
C    -2.762000000     1.121000000     4.041000000
C    -4.211000000     1.081000000     3.618000000
H    -4.802000000     1.971000000     3.844000000
H    -4.730000000     0.325000000     4.210000000
C    -4.377000000     0.711000000     2.111000000
C    -4.645000000     1.724000000     1.203000000
H    -4.844000000     2.729000000     1.566000000
C    -4.248000000    -0.559000000     1.628000000
C    -4.268000000    -0.834000000     0.275000000
H    -4.163000000    -1.835000000    -0.136000000
C    -4.634000000     0.153000000    -0.595000000
O    -4.449000000    -0.154000000    -1.952000000
C    -3.214000000     0.111000000    -2.658000000
C    -2.715000000    -1.087000000    -3.523000000
C    -1.793000000    -0.905000000    -4.535000000
H    -1.301000000     0.060000000    -4.621000000
C    -3.258000000    -2.333000000    -3.332000000
H    -4.008000000    -2.467000000    -2.556000000
O    -3.435000000     1.321000000    -3.399000000
H    -2.428000000     0.280000000    -1.906000000
C    -4.782000000     1.433000000    -0.185000000
C    -4.793000000     2.531000000    -1.208000000
H    -5.308000000     3.355000000    -0.709000000
H    -5.462000000     2.212000000    -2.011000000
C    -3.451000000     3.041000000    -1.717000000
C    -2.801000000     4.134000000    -1.183000000
H    -3.228000000     4.564000000    -0.280000000
C    -2.841000000     2.429000000    -2.851000000
C    -1.604000000     2.841000000    -3.351000000
H    -1.075000000     2.423000000    -4.204000000
C    -0.948000000     3.860000000    -2.687000000
O     0.418000000     3.994000000    -3.048000000
C     1.562000000     3.477000000    -2.216000000
C     2.603000000     2.877000000    -3.079000000
C     2.224000000     2.580000000    -4.415000000
H     1.277000000     2.915000000    -4.829000000
C     3.764000000     2.362000000    -2.518000000
H     3.912000000     2.400000000    -1.442000000
O     2.168000000     4.488000000    -1.329000000
H     1.036000000     2.784000000    -1.542000000
C    -1.511000000     4.522000000    -1.597000000
C    -0.625000000     5.449000000    -0.779000000
H    -1.222000000     6.190000000    -0.243000000
H    -0.078000000     5.971000000    -1.567000000
C     0.259000000     4.661000000     0.143000000
C     1.631000000     4.345000000    -0.066000000
C     2.356000000     3.730000000     0.924000000
H     3.337000000     3.300000000     0.739000000
C     1.799000000     3.444000000     2.120000000
O     2.576000000     2.748000000     3.081000000
C     2.224000000     1.340000000     3.444000000
H     1.594000000     1.013000000     2.603000000
C     3.348000000     0.354000000     3.354000000
C     3.259000000    -0.760000000     4.159000000
H     2.464000000    -0.893000000     4.888000000
C     4.402000000     0.474000000     2.469000000
H     4.490000000     1.422000000     1.945000000
C     5.449000000    -0.463000000     2.444000000
O     6.548000000    -0.198000000     1.708000000
C     5.339000000    -1.677000000     3.161000000
H     6.183000000    -2.359000000     3.105000000
C     4.294000000    -1.727000000     4.113000000
O     4.363000000    -2.774000000     5.040000000
C     3.230000000    -3.432000000     5.497000000
C     2.318000000    -4.071000000     4.601000000
H     2.378000000    -3.925000000     3.526000000
C     2.941000000    -3.491000000     6.876000000
H     3.678000000    -3.111000000     7.579000000
C     1.785000000    -4.058000000     7.334000000
H     1.605000000    -3.962000000     8.402000000
C     0.886000000    -4.695000000     6.428000000
H    -0.030000000    -5.240000000     6.642000000
C     1.205000000    -4.772000000     5.078000000
O     0.369000000    -5.559000000     4.333000000
C    -0.634000000    -5.038000000     3.567000000
C    -0.844000000    -5.667000000     2.374000000
H    -0.393000000    -6.602000000     2.051000000
C    -1.622000000    -5.103000000     1.401000000
O    -1.862000000    -5.820000000     0.237000000
C    -2.977000000    -5.667000000    -0.472000000
C    -2.762000000    -5.415000000    -1.810000000
H    -1.767000000    -5.378000000    -2.248000000
C    -4.251000000    -5.735000000     0.047000000
H    -4.533000000    -5.981000000     1.067000000
C    -5.322000000    -5.384000000    -0.796000000
H    -6.301000000    -5.243000000    -0.346000000
C    -5.138000000    -4.986000000    -2.129000000
H    -5.890000000    -4.708000000    -2.864000000
C    -3.837000000    -5.017000000    -2.621000000
O    -3.455000000    -4.678000000    -3.864000000
C    -2.953000000    -3.362000000    -4.189000000
C    -2.010000000    -3.233000000    -5.167000000
H    -1.718000000    -4.054000000    -5.817000000
C    -1.425000000    -1.971000000    -5.314000000
O    -0.522000000    -1.907000000    -6.314000000
C     0.023000000    -0.704000000    -6.820000000
C     1.277000000    -0.176000000    -6.499000000
H     1.816000000    -0.741000000    -5.742000000
C    -0.764000000     0.100000000    -7.606000000
H    -1.790000000    -0.216000000    -7.776000000
C    -0.314000000     1.373000000    -8.156000000
H    -0.997000000     1.830000000    -8.867000000
C     0.925000000     1.805000000    -7.799000000
H     1.309000000     2.699000000    -8.284000000
C     1.685000000     1.058000000    -6.946000000
O     2.869000000     1.662000000    -6.558000000
C     3.194000000     1.959000000    -5.270000000
C     4.414000000     1.482000000    -4.704000000
H     5.066000000     0.856000000    -5.308000000
C     4.656000000     1.637000000    -3.340000000
O     5.683000000     0.955000000    -2.764000000
C     6.146000000     1.343000000    -1.591000000
C     6.704000000     2.618000000    -1.285000000
H     6.680000000     3.437000000    -1.999000000
C     7.238000000     2.852000000    -0.050000000
H     7.688000000     3.805000000     0.215000000
C     7.212000000     1.917000000     0.947000000
H     7.702000000     2.109000000     1.898000000
C     6.509000000     0.743000000     0.735000000
C     5.952000000     0.471000000    -0.534000000
H     5.428000000    -0.477000000    -0.621000000
C     0.181000000    -2.220000000    -0.785000000
H    -0.226000000    -3.225000000    -0.868000000
C    -0.644000000    -1.122000000    -0.519000000
H    -1.722000000    -1.222000000    -0.613000000
C     0.001000000     0.151000000    -0.209000000
H    -0.556000000     1.054000000    -0.080000000
C     1.369000000     0.235000000    -0.257000000
H     1.843000000     1.196000000    -0.075000000
C     2.151000000    -0.840000000    -0.552000000
H     3.216000000    -0.695000000    -0.713000000
C     1.574000000    -2.079000000    -0.832000000
C     2.466000000    -3.240000000    -1.328000000
O     3.663000000    -3.098000000    -1.353000000
O     1.977000000    -4.336000000    -1.504000000
O    -0.321000000    -6.702000000    -3.871000000
H     0.465000000    -6.157000000    -3.902000000
H    -0.018000000    -7.573000000    -4.128000000
O     4.734000000    -7.429000000    -1.643000000
H     4.929000000    -6.643000000    -2.153000000
H     4.007000000    -7.172000000    -1.075000000
O     8.126000000    -3.917000000     0.814000000
H     7.468000000    -3.499000000     0.259000000
H     8.439000000    -3.215000000     1.385000000
O     2.989000000    -3.289000000    -5.989000000
H     3.099000000    -2.940000000    -6.874000000
H     3.374000000    -2.622000000    -5.420000000
O     1.588000000   -10.134000000    -0.372000000
H     1.808000000   -10.401000000     0.520000000
H     1.325000000    -9.217000000    -0.290000000
O     5.584000000    -4.619000000    -5.637000000
H     4.629000000    -4.560000000    -5.611000000
H     5.885000000    -3.748000000    -5.378000000
O     2.029000000    -4.663000000    -8.404000000
H     2.035000000    -4.706000000    -7.448000000
H     2.579000000    -3.909000000    -8.614000000
O     5.113000000    -5.203000000    -2.854000000
H     4.603000000    -5.582000000    -3.570000000
H     4.570000000    -4.486000000    -2.527000000
O     3.803000000    -1.820000000    -3.771000000
H     3.685000000    -2.275000000    -2.938000000
H     4.256000000    -1.009000000    -3.538000000
O     2.958000000    -8.972000000    -2.869000000
H     2.600000000    -9.611000000    -2.254000000
H     3.679000000    -8.560000000    -2.393000000
O     3.926000000    -6.620000000     2.590000000
H     3.574000000    -7.510000000     2.620000000
H     3.466000000    -6.205000000     1.861000000
O     3.277000000    -7.981000000    -5.577000000
H     2.840000000    -7.161000000    -5.349000000
H     2.993000000    -8.599000000    -4.903000000
O     2.531000000    -5.379000000    -3.970000000
H     2.354000000    -4.514000000    -4.339000000
H     2.338000000    -5.286000000    -3.037000000
O     6.688000000    -6.626000000     1.683000000
H     5.781000000    -6.627000000     1.988000000
H     6.824000000    -5.743000000     1.338000000
O     0.378000000    -7.742000000    -0.707000000
H    -0.043000000    -7.278000000    -1.430000000
H    -0.302000000    -8.322000000    -0.366000000
O     6.363000000    -3.082000000    -1.223000000
H     5.442000000    -2.927000000    -1.434000000
H     6.772000000    -3.277000000    -2.065000000
O     1.583000000    -8.261000000     3.245000000
H     1.596000000    -7.313000000     3.113000000
H     0.671000000    -8.461000000     3.454000000
O     2.462000000    -6.342000000     0.019000000
H     2.455000000    -5.535000000    -0.497000000
H     1.575000000    -6.691000000    -0.069000000
O     7.845000000    -4.921000000    -3.190000000
H     6.921000000    -5.155000000    -3.100000000
H     8.264000000    -5.719000000    -3.511000000
