215
-1465.97676
C    -3.277000000    -3.690000000     1.112000000
H    -4.059000000    -2.975000000     0.865000000
C    -2.408000000    -3.250000000     2.162000000
C    -1.368000000    -4.117000000     2.556000000
H    -0.663000000    -3.755000000     3.300000000
C    -2.594000000    -1.849000000     2.754000000
O    -3.981000000    -1.486000000     2.845000000
H    -2.068000000    -1.211000000     2.028000000
O    -2.067000000    -1.808000000     4.086000000
C    -1.284000000    -0.750000000     4.379000000
C     0.064000000    -1.065000000     4.510000000
H     0.388000000    -2.094000000     4.379000000
C     0.951000000     0.032000000     4.592000000
O     2.317000000    -0.145000000     4.462000000
C     0.430000000     1.342000000     4.678000000
C     1.338000000     2.595000000     4.718000000
H     0.779000000     3.493000000     4.989000000
C     1.823000000     2.966000000     3.333000000
C     1.093000000     3.902000000     2.577000000
H     0.160000000     4.288000000     2.980000000
H     2.231000000     2.569000000     5.346000000
C    -0.928000000     1.535000000     4.810000000
H    -1.346000000     2.536000000     4.883000000
C    -1.833000000     0.510000000     4.586000000
C    -3.366000000     0.842000000     4.509000000
H    -3.522000000     1.782000000     5.043000000
H    -3.997000000     0.087000000     4.983000000
C    -3.857000000     0.947000000     3.063000000
C    -3.842000000     2.214000000     2.404000000
H    -3.438000000     3.073000000     2.933000000
C    -4.149000000    -0.206000000     2.324000000
C    -4.558000000    -0.125000000     1.004000000
H    -4.618000000    -0.996000000     0.357000000
C    -4.516000000     1.110000000     0.364000000
O    -4.642000000     1.152000000    -1.039000000
C    -3.446000000     1.263000000    -1.820000000
C    -3.487000000     0.296000000    -3.017000000
C    -2.640000000     0.491000000    -4.138000000
H    -1.882000000     1.268000000    -4.084000000
C    -4.401000000    -0.697000000    -3.087000000
H    -4.992000000    -0.836000000    -2.185000000
O    -3.273000000     2.605000000    -2.350000000
H    -2.525000000     1.025000000    -1.267000000
C    -4.178000000     2.286000000     1.086000000
C    -4.062000000     3.698000000     0.412000000
H    -4.033000000     4.428000000     1.224000000
H    -4.926000000     3.884000000    -0.230000000
C    -2.794000000     3.946000000    -0.318000000
C    -1.744000000     4.564000000     0.399000000
H    -1.925000000     4.847000000     1.433000000
C    -2.490000000     3.440000000    -1.614000000
C    -1.277000000     3.652000000    -2.138000000
H    -1.021000000     3.285000000    -3.129000000
C    -0.292000000     4.352000000    -1.461000000
O     0.955000000     4.464000000    -2.033000000
C     1.973000000     3.500000000    -1.643000000
C     2.748000000     2.959000000    -2.831000000
C     2.124000000     2.744000000    -4.090000000
H     1.122000000     3.102000000    -4.314000000
C     4.042000000     2.412000000    -2.585000000
H     4.527000000     2.647000000    -1.641000000
O     2.892000000     4.021000000    -0.595000000
H     1.440000000     2.623000000    -1.245000000
C    -0.500000000     4.828000000    -0.188000000
C     0.615000000     5.470000000     0.607000000
H     0.382000000     6.175000000     1.408000000
H     1.274000000     6.021000000    -0.067000000
C     1.436000000     4.348000000     1.278000000
C     2.587000000     3.833000000     0.725000000
C     3.276000000     2.847000000     1.401000000
H     4.136000000     2.318000000     0.996000000
C     2.907000000     2.428000000     2.681000000
O     3.556000000     1.370000000     3.264000000
C     2.927000000     0.107000000     3.201000000
H     2.149000000     0.063000000     2.425000000
C     3.949000000    -0.967000000     2.965000000
C     3.628000000    -2.300000000     3.236000000
H     2.795000000    -2.440000000     3.920000000
C     5.018000000    -0.673000000     2.052000000
H     5.236000000     0.345000000     1.741000000
C     5.847000000    -1.767000000     1.657000000
O     6.870000000    -1.642000000     0.743000000
C     5.594000000    -3.041000000     2.141000000
H     6.284000000    -3.783000000     1.747000000
C     4.465000000    -3.391000000     2.865000000
O     4.198000000    -4.699000000     3.059000000
C     3.035000000    -5.235000000     3.529000000
C     1.979000000    -5.512000000     2.619000000
H     2.096000000    -5.473000000     1.539000000
C     2.824000000    -5.370000000     4.932000000
H     3.572000000    -5.109000000     5.675000000
C     1.551000000    -5.662000000     5.401000000
H     1.371000000    -5.792000000     6.465000000
C     0.533000000    -5.930000000     4.497000000
H    -0.440000000    -6.157000000     4.924000000
C     0.818000000    -5.878000000     3.119000000
O    -0.162000000    -6.162000000     2.309000000
C    -1.198000000    -5.348000000     1.929000000
C    -2.007000000    -5.779000000     0.862000000
H    -1.800000000    -6.762000000     0.445000000
C    -3.016000000    -4.908000000     0.414000000
O    -3.776000000    -5.407000000    -0.623000000
C    -4.804000000    -4.676000000    -1.270000000
C    -4.549000000    -4.128000000    -2.517000000
H    -3.553000000    -4.165000000    -2.950000000
C    -6.055000000    -4.522000000    -0.639000000
H    -6.274000000    -4.964000000     0.330000000
C    -7.080000000    -3.797000000    -1.351000000
H    -8.102000000    -3.715000000    -0.990000000
C    -6.834000000    -3.247000000    -2.608000000
H    -7.588000000    -2.726000000    -3.192000000
C    -5.532000000    -3.364000000    -3.137000000
O    -5.273000000    -2.586000000    -4.299000000
C    -4.494000000    -1.479000000    -4.262000000
C    -3.623000000    -1.321000000    -5.312000000
H    -3.843000000    -1.825000000    -6.250000000
C    -2.755000000    -0.332000000    -5.316000000
O    -1.805000000    -0.289000000    -6.341000000
C    -1.072000000     0.811000000    -6.663000000
C     0.260000000     0.854000000    -6.247000000
H     0.765000000    -0.039000000    -5.887000000
C    -1.636000000     1.889000000    -7.365000000
H    -2.674000000     1.813000000    -7.676000000
C    -0.894000000     3.018000000    -7.660000000
H    -1.457000000     3.810000000    -8.145000000
C     0.408000000     3.090000000    -7.244000000
H     0.990000000     3.997000000    -7.389000000
C     0.952000000     1.990000000    -6.626000000
O     2.319000000     2.026000000    -6.352000000
C     2.830000000     2.122000000    -5.103000000
C     4.107000000     1.510000000    -4.840000000
H     4.666000000     1.046000000    -5.648000000
C     4.696000000     1.613000000    -3.553000000
O     5.794000000     0.786000000    -3.280000000
C     6.418000000     0.666000000    -2.059000000
C     7.218000000     1.751000000    -1.658000000
H     7.198000000     2.721000000    -2.147000000
C     7.866000000     1.690000000    -0.431000000
H     8.417000000     2.571000000    -0.113000000
C     7.727000000     0.537000000     0.383000000
H     8.330000000     0.438000000     1.282000000
C     7.023000000    -0.546000000    -0.053000000
C     6.417000000    -0.454000000    -1.282000000
H     5.833000000    -1.293000000    -1.653000000
C     0.457000000    -2.216000000     0.001000000
H    -0.403000000    -2.879000000     0.036000000
C     0.291000000    -0.839000000     0.365000000
H    -0.569000000    -0.426000000     0.885000000
C     1.230000000     0.089000000     0.111000000
H     1.128000000     1.162000000     0.415000000
C     2.481000000    -0.325000000    -0.346000000
H     3.208000000     0.469000000    -0.494000000
C     2.717000000    -1.658000000    -0.586000000
H     3.625000000    -1.965000000    -1.100000000
C     1.709000000    -2.610000000    -0.404000000
C     1.959000000    -4.026000000    -0.846000000
O     3.127000000    -4.448000000    -1.032000000
O     1.043000000    -4.838000000    -0.850000000
O    -1.628000000    -8.121000000    -3.676000000
H    -0.998000000    -8.482000000    -4.300000000
H    -1.228000000    -8.267000000    -2.819000000
O    -0.502000000    -5.311000000    -5.760000000
H     0.010000000    -4.515000000    -5.907000000
H    -0.488000000    -5.432000000    -4.810000000
O     4.495000000    -7.240000000    -3.067000000
H     3.652000000    -6.790000000    -3.001000000
H     5.122000000    -6.631000000    -2.678000000
O     2.041000000    -6.122000000    -3.123000000
H     2.031000000    -5.924000000    -2.187000000
H     1.256000000    -5.696000000    -3.467000000
O    -0.505000000    -8.755000000    -1.349000000
H     0.163000000    -8.189000000    -0.961000000
H    -0.837000000    -9.272000000    -0.615000000
O     4.600000000    -8.312000000     2.137000000
H     4.392000000    -9.199000000     1.843000000
H     5.330000000    -8.040000000     1.581000000
O     2.943000000    -9.088000000    -1.456000000
H     3.428000000    -8.536000000    -2.069000000
H     2.323000000    -8.492000000    -1.036000000
O     6.016000000    -2.709000000    -4.947000000
H     5.071000000    -2.843000000    -4.875000000
H     6.388000000    -3.256000000    -4.255000000
O     3.419000000    -4.942000000    -5.717000000
H     3.607000000    -4.583000000    -6.585000000
H     2.507000000    -4.705000000    -5.553000000
O     5.578000000    -5.732000000    -1.106000000
H     5.639000000    -6.250000000    -0.303000000
H     4.876000000    -5.104000000    -0.934000000
O     3.996000000    -3.733000000    -3.427000000
H     3.631000000    -4.427000000    -3.976000000
H     3.893000000    -4.057000000    -2.532000000
O     0.881000000    -8.944000000    -4.659000000
H     1.392000000    -8.422000000    -4.041000000
H     0.959000000    -8.476000000    -5.490000000
O    -1.405000000    -2.090000000    -3.088000000
H    -0.785000000    -1.374000000    -3.224000000
H    -2.255000000    -1.720000000    -3.327000000
O    -0.528000000    -4.720000000    -3.155000000
H    -1.060000000    -3.936000000    -3.289000000
H    -0.217000000    -4.648000000    -2.253000000
O     7.200000000    -3.886000000    -2.390000000
H     7.401000000    -3.428000000    -1.574000000
H     6.522000000    -4.517000000    -2.149000000
O     0.700000000    -0.162000000    -2.795000000
H     1.311000000    -0.442000000    -3.477000000
H     1.166000000    -0.325000000    -1.974000000
O     1.422000000    -7.617000000     0.207000000
H     0.851000000    -6.864000000     0.358000000
H     1.572000000    -7.983000000     1.078000000
O     1.346000000    -3.322000000    -6.861000000
H     1.872000000    -2.547000000    -7.060000000
H     0.546000000    -3.206000000    -7.374000000
O     2.682000000    -1.412000000    -4.260000000
H     3.172000000    -1.186000000    -5.050000000
H     3.011000000    -2.276000000    -4.012000000
