215
-1446.11140
C     3.167000000     3.290000000    -2.828000000
H     3.665000000     2.575000000    -3.478000000
C     3.011000000     2.894000000    -1.459000000
C     2.371000000     3.753000000    -0.616000000
H     2.249000000     3.448000000     0.420000000
C     3.544000000     1.636000000    -0.962000000
O     4.537000000     1.047000000    -1.887000000
H     2.763000000     0.898000000    -0.730000000
O     4.215000000     1.862000000     0.323000000
C     4.022000000     0.963000000     1.291000000
C     3.422000000     1.412000000     2.493000000
H     3.036000000     2.425000000     2.561000000
C     3.140000000     0.449000000     3.477000000
O     2.333000000     0.893000000     4.542000000
C     3.483000000    -0.942000000     3.315000000
C     3.107000000    -1.954000000     4.317000000
H     3.839000000    -2.760000000     4.403000000
C     1.745000000    -2.466000000     4.013000000
C     1.640000000    -3.590000000     3.164000000
H     2.560000000    -4.082000000     2.856000000
H     3.110000000    -1.567000000     5.338000000
C     4.207000000    -1.303000000     2.199000000
H     4.701000000    -2.271000000     2.222000000
C     4.453000000    -0.353000000     1.186000000
C     5.385000000    -0.847000000     0.004000000
H     5.934000000    -1.702000000     0.402000000
H     6.071000000    -0.042000000    -0.268000000
C     4.613000000    -1.168000000    -1.196000000
C     4.049000000    -2.401000000    -1.351000000
H     4.324000000    -3.140000000    -0.602000000
C     4.350000000    -0.247000000    -2.203000000
C     3.513000000    -0.542000000    -3.262000000
H     3.044000000     0.190000000    -3.914000000
C     2.902000000    -1.817000000    -3.379000000
O     1.753000000    -1.875000000    -4.170000000
C     0.411000000    -2.037000000    -3.585000000
C    -0.561000000    -1.387000000    -4.457000000
C    -1.889000000    -1.804000000    -4.631000000
H    -2.127000000    -2.758000000    -4.167000000
C    -0.116000000    -0.130000000    -5.049000000
H     0.855000000     0.311000000    -4.839000000
O     0.091000000    -3.431000000    -3.530000000
H     0.342000000    -1.668000000    -2.551000000
C     3.260000000    -2.725000000    -2.415000000
C     2.669000000    -4.175000000    -2.435000000
H     3.355000000    -4.858000000    -1.929000000
H     2.573000000    -4.375000000    -3.504000000
C     1.356000000    -4.324000000    -1.721000000
C     1.431000000    -4.808000000    -0.384000000
H     2.437000000    -5.032000000    -0.039000000
C     0.134000000    -3.902000000    -2.256000000
C    -1.054000000    -3.997000000    -1.554000000
H    -1.947000000    -3.516000000    -1.947000000
C    -0.969000000    -4.399000000    -0.250000000
O    -2.120000000    -4.213000000     0.481000000
C    -2.231000000    -3.081000000     1.338000000
C    -3.570000000    -2.369000000     1.188000000
C    -4.347000000    -2.555000000    -0.023000000
H    -3.995000000    -3.177000000    -0.842000000
C    -4.040000000    -1.476000000     2.156000000
H    -3.429000000    -1.209000000     3.015000000
O    -2.100000000    -3.523000000     2.731000000
H    -1.446000000    -2.360000000     1.065000000
C     0.244000000    -4.800000000     0.374000000
C     0.309000000    -5.223000000     1.787000000
H     1.105000000    -5.926000000     2.039000000
H    -0.665000000    -5.678000000     1.974000000
C     0.354000000    -4.079000000     2.776000000
C    -0.793000000    -3.331000000     3.136000000
C    -0.636000000    -2.249000000     4.029000000
H    -1.482000000    -1.584000000     4.185000000
C     0.605000000    -1.819000000     4.499000000
O     0.719000000    -0.609000000     5.167000000
C     0.910000000     0.611000000     4.424000000
H     0.652000000     0.388000000     3.379000000
C     0.072000000     1.827000000     4.862000000
C     0.627000000     3.118000000     4.675000000
H     1.642000000     3.280000000     4.320000000
C    -1.264000000     1.682000000     5.328000000
H    -1.613000000     0.686000000     5.588000000
C    -2.010000000     2.814000000     5.530000000
O    -3.278000000     2.747000000     5.819000000
C    -1.445000000     4.091000000     5.323000000
H    -2.045000000     4.994000000     5.393000000
C    -0.144000000     4.238000000     4.913000000
O     0.334000000     5.483000000     4.633000000
C     1.138000000     5.949000000     3.544000000
C     0.868000000     5.624000000     2.193000000
H    -0.019000000     5.008000000     2.067000000
C     2.340000000     6.532000000     3.865000000
H     2.544000000     6.626000000     4.928000000
C     3.104000000     7.035000000     2.803000000
H     3.962000000     7.643000000     3.078000000
C     2.822000000     6.709000000     1.459000000
H     3.409000000     7.102000000     0.633000000
C     1.704000000     6.010000000     1.129000000
O     1.233000000     5.817000000    -0.136000000
C     1.865000000     4.919000000    -1.005000000
C     1.936000000     5.317000000    -2.337000000
H     1.435000000     6.210000000    -2.702000000
C     2.528000000     4.439000000    -3.271000000
O     2.475000000     4.819000000    -4.582000000
C     2.179000000     3.876000000    -5.585000000
C     0.979000000     3.241000000    -5.538000000
H     0.266000000     3.430000000    -4.740000000
C     3.025000000     3.595000000    -6.587000000
H     3.886000000     4.252000000    -6.679000000
C     2.692000000     2.605000000    -7.523000000
H     3.393000000     2.504000000    -8.348000000
C     1.457000000     1.908000000    -7.547000000
H     1.174000000     1.187000000    -8.309000000
C     0.590000000     2.324000000    -6.544000000
O    -0.638000000     1.808000000    -6.389000000
C    -1.011000000     0.579000000    -5.909000000
C    -2.322000000     0.186000000    -5.982000000
H    -3.087000000     0.802000000    -6.447000000
C    -2.760000000    -1.038000000    -5.363000000
O    -4.051000000    -1.368000000    -5.519000000
C    -4.774000000    -2.174000000    -4.688000000
C    -5.136000000    -1.721000000    -3.397000000
H    -5.128000000    -0.668000000    -3.127000000
C    -4.927000000    -3.541000000    -5.017000000
H    -4.545000000    -3.872000000    -5.979000000
C    -5.571000000    -4.397000000    -4.116000000
H    -5.670000000    -5.445000000    -4.390000000
C    -6.157000000    -3.849000000    -2.949000000
H    -6.882000000    -4.408000000    -2.363000000
C    -5.896000000    -2.502000000    -2.575000000
O    -6.377000000    -1.958000000    -1.343000000
C    -5.616000000    -1.934000000    -0.171000000
C    -6.028000000    -1.011000000     0.796000000
H    -6.931000000    -0.430000000     0.627000000
C    -5.269000000    -0.860000000     1.919000000
O    -5.828000000     0.046000000     2.902000000
C    -5.210000000     0.159000000     4.089000000
C    -5.489000000    -0.774000000     5.078000000
H    -6.177000000    -1.593000000     4.888000000
C    -4.972000000    -0.477000000     6.297000000
H    -5.248000000    -1.095000000     7.148000000
C    -4.120000000     0.662000000     6.512000000
H    -3.604000000     0.821000000     7.455000000
C    -3.986000000     1.588000000     5.563000000
C    -4.531000000     1.337000000     4.353000000
H    -4.411000000     2.104000000     3.593000000
C    -2.777000000     0.547000000    -0.184000000
H    -3.695000000     0.118000000    -0.578000000
C    -1.555000000    -0.054000000    -0.363000000
H    -1.516000000    -1.036000000    -0.827000000
C    -0.399000000     0.527000000     0.193000000
H     0.567000000     0.027000000     0.248000000
C    -0.510000000     1.741000000     0.812000000
H     0.378000000     2.338000000     1.007000000
C    -1.713000000     2.393000000     0.944000000
H    -1.719000000     3.385000000     1.388000000
C    -2.904000000     1.813000000     0.404000000
C    -4.159000000     2.653000000     0.265000000
O    -4.188000000     3.758000000     0.762000000
O    -5.156000000     2.228000000    -0.214000000
O    -5.839000000     4.646000000    -4.971000000
H    -5.311000000     3.849000000    -5.008000000
H    -5.649000000     5.020000000    -4.110000000
O    -0.919000000     2.095000000    -2.589000000
H    -0.759000000     2.953000000    -2.197000000
H    -1.524000000     1.665000000    -1.985000000
O    -1.042000000     4.690000000    -1.248000000
H    -1.753000000     5.118000000    -0.770000000
H    -0.453000000     5.405000000    -1.490000000
O    -9.970000000     2.244000000     0.383000000
H    -9.586000000     1.897000000    -0.422000000
H    -9.320000000     2.053000000     1.060000000
O    -2.598000000     6.539000000    -3.749000000
H    -3.188000000     6.677000000    -4.491000000
H    -2.933000000     5.751000000    -3.320000000
O    -8.388000000     4.407000000    -2.146000000
H    -8.067000000     3.615000000    -2.576000000
H    -7.916000000     4.436000000    -1.313000000
O    -4.784000000     4.963000000    -2.605000000
H    -5.583000000     5.217000000    -2.143000000
H    -4.151000000     4.785000000    -1.909000000
O    -2.718000000     2.902000000    -4.413000000
H    -1.857000000     2.528000000    -4.226000000
H    -2.838000000     3.574000000    -3.742000000
O    -3.152000000     5.946000000     0.036000000
H    -3.583000000     5.121000000     0.261000000
H    -2.908000000     6.326000000     0.880000000
O    -7.137000000     2.391000000     1.855000000
H    -6.744000000     1.679000000     2.360000000
H    -6.578000000     2.475000000     1.083000000
O    -9.092000000     3.668000000     3.338000000
H    -9.749000000     2.983000000     3.461000000
H    -8.374000000     3.232000000     2.879000000
O    -6.340000000     5.021000000    -0.271000000
H    -6.459000000     5.525000000     0.534000000
H    -5.665000000     4.378000000    -0.054000000
O    -6.787000000     1.654000000    -2.159000000
H    -6.316000000     1.787000000    -2.982000000
H    -6.129000000     1.802000000    -1.480000000
O    -5.103000000     5.332000000     2.804000000
H    -4.694000000     4.845000000     2.089000000
H    -4.367000000     5.670000000     3.314000000
O    -7.698000000    -0.135000000    -4.362000000
H    -7.251000000     0.148000000    -3.564000000
H    -7.601000000     0.603000000    -4.964000000
O    -3.520000000     8.650000000    -1.027000000
H    -4.404000000     8.864000000    -0.728000000
H    -3.462000000     7.699000000    -0.940000000
O    -7.581000000     5.845000000     3.721000000
H    -7.985000000     4.982000000     3.631000000
H    -6.671000000     5.712000000     3.455000000
O    -2.390000000     6.603000000     2.632000000
H    -1.933000000     6.743000000     3.461000000
H    -2.892000000     7.407000000     2.497000000
O    -5.287000000     1.729000000    -4.632000000
H    -5.444000000     1.528000000    -5.554000000
H    -4.343000000     1.875000000    -4.575000000
