215
-1449.12438
C    -4.782000000    -2.834000000     1.560000000
H    -5.601000000    -2.229000000     1.181000000
C    -3.779000000    -2.345000000     2.349000000
C    -2.743000000    -3.180000000     2.668000000
H    -1.940000000    -2.747000000     3.259000000
C    -3.545000000    -0.849000000     2.373000000
O    -4.666000000    -0.065000000     2.067000000
H    -2.736000000    -0.628000000     1.661000000
O    -3.029000000    -0.497000000     3.640000000
C    -2.051000000     0.449000000     3.854000000
C    -0.726000000     0.081000000     4.091000000
H    -0.592000000    -0.996000000     4.157000000
C     0.325000000     0.961000000     4.230000000
O     1.565000000     0.410000000     4.529000000
C    -0.021000000     2.320000000     4.116000000
C     1.106000000     3.407000000     4.206000000
H     0.664000000     4.377000000     4.441000000
C     1.882000000     3.547000000     2.927000000
C     1.552000000     4.481000000     1.896000000
H     0.731000000     5.191000000     1.953000000
H     1.781000000     3.189000000     5.036000000
C    -1.334000000     2.720000000     4.041000000
H    -1.420000000     3.767000000     3.764000000
C    -2.372000000     1.812000000     3.878000000
C    -3.751000000     2.352000000     3.461000000
H    -3.902000000     3.395000000     3.745000000
H    -4.418000000     1.743000000     4.076000000
C    -3.968000000     2.202000000     1.904000000
C    -3.483000000     3.278000000     1.116000000
H    -3.254000000     4.204000000     1.638000000
C    -4.448000000     1.026000000     1.269000000
C    -4.660000000     0.925000000    -0.014000000
H    -4.951000000    -0.005000000    -0.498000000
C    -4.277000000     2.031000000    -0.811000000
O    -4.097000000     1.687000000    -2.144000000
C    -2.784000000     1.389000000    -2.759000000
C    -2.811000000     0.233000000    -3.762000000
C    -2.108000000     0.102000000    -4.917000000
H    -1.517000000     0.954000000    -5.243000000
C    -3.632000000    -0.838000000    -3.403000000
H    -4.213000000    -0.763000000    -2.487000000
O    -2.299000000     2.623000000    -3.459000000
H    -2.047000000     1.157000000    -1.975000000
C    -3.612000000     3.167000000    -0.276000000
C    -3.234000000     4.275000000    -1.237000000
H    -3.296000000     5.238000000    -0.726000000
H    -3.929000000     4.256000000    -2.079000000
C    -1.777000000     4.169000000    -1.648000000
C    -0.765000000     4.826000000    -0.887000000
H    -0.951000000     5.485000000    -0.043000000
C    -1.400000000     3.378000000    -2.747000000
C    -0.065000000     3.199000000    -3.038000000
H     0.299000000     2.514000000    -3.799000000
C     0.888000000     3.811000000    -2.251000000
O     2.219000000     3.534000000    -2.489000000
C     3.027000000     2.719000000    -1.597000000
C     3.804000000     1.664000000    -2.297000000
C     3.061000000     0.947000000    -3.284000000
H     2.046000000     1.198000000    -3.580000000
C     5.133000000     1.351000000    -1.960000000
H     5.509000000     1.845000000    -1.068000000
O     3.823000000     3.569000000    -0.785000000
H     2.355000000     2.128000000    -0.957000000
C     0.576000000     4.715000000    -1.238000000
C     1.644000000     5.459000000    -0.484000000
H     1.333000000     6.449000000    -0.144000000
H     2.479000000     5.629000000    -1.167000000
C     2.176000000     4.520000000     0.653000000
C     3.233000000     3.663000000     0.448000000
C     3.561000000     2.721000000     1.385000000
H     4.406000000     2.041000000     1.308000000
C     2.962000000     2.681000000     2.652000000
O     3.257000000     1.620000000     3.486000000
C     2.484000000     0.435000000     3.412000000
H     1.952000000     0.503000000     2.452000000
C     3.283000000    -0.894000000     3.550000000
C     2.724000000    -2.026000000     4.061000000
H     1.785000000    -1.975000000     4.607000000
C     4.453000000    -0.998000000     2.853000000
H     4.818000000    -0.103000000     2.358000000
C     5.063000000    -2.247000000     2.672000000
O     6.082000000    -2.310000000     1.773000000
C     4.502000000    -3.396000000     3.219000000
H     4.997000000    -4.311000000     2.903000000
C     3.341000000    -3.281000000     3.971000000
O     2.734000000    -4.457000000     4.432000000
C     1.348000000    -4.611000000     4.574000000
C     0.572000000    -4.723000000     3.505000000
H     0.978000000    -4.650000000     2.499000000
C     0.909000000    -4.878000000     5.883000000
H     1.578000000    -4.749000000     6.730000000
C    -0.450000000    -5.073000000     6.045000000
H    -0.919000000    -5.094000000     7.026000000
C    -1.292000000    -5.210000000     4.899000000
H    -2.360000000    -5.307000000     5.076000000
C    -0.784000000    -4.975000000     3.637000000
O    -1.613000000    -5.228000000     2.523000000
C    -2.723000000    -4.466000000     2.260000000
C    -3.804000000    -5.040000000     1.557000000
H    -3.747000000    -6.088000000     1.275000000
C    -4.857000000    -4.174000000     1.200000000
O    -5.830000000    -4.603000000     0.412000000
C    -6.245000000    -3.979000000    -0.717000000
C    -5.216000000    -3.761000000    -1.658000000
H    -4.242000000    -4.218000000    -1.501000000
C    -7.595000000    -3.718000000    -1.026000000
H    -8.473000000    -3.912000000    -0.414000000
C    -7.831000000    -2.947000000    -2.173000000
H    -8.849000000    -2.624000000    -2.377000000
C    -6.832000000    -2.628000000    -3.039000000
H    -7.118000000    -2.112000000    -3.952000000
C    -5.466000000    -3.039000000    -2.803000000
O    -4.542000000    -2.986000000    -3.808000000
C    -3.736000000    -2.002000000    -4.175000000
C    -2.954000000    -2.164000000    -5.296000000
H    -3.026000000    -2.962000000    -6.030000000
C    -2.170000000    -1.043000000    -5.697000000
O    -1.344000000    -1.052000000    -6.771000000
C    -0.106000000    -0.422000000    -6.666000000
C     0.866000000    -0.931000000    -5.772000000
H     0.654000000    -1.831000000    -5.200000000
C     0.160000000     0.667000000    -7.440000000
H    -0.589000000     1.057000000    -8.124000000
C     1.340000000     1.418000000    -7.279000000
H     1.473000000     2.294000000    -7.909000000
C     2.332000000     0.816000000    -6.490000000
H     3.306000000     1.295000000    -6.437000000
C     2.100000000    -0.290000000    -5.685000000
O     3.113000000    -0.789000000    -4.890000000
C     3.758000000    -0.064000000    -3.949000000
C     5.072000000    -0.356000000    -3.634000000
H     5.614000000    -1.103000000    -4.209000000
C     5.765000000     0.384000000    -2.674000000
O     7.087000000     0.081000000    -2.289000000
C     7.427000000    -0.285000000    -0.975000000
C     8.445000000     0.375000000    -0.335000000
H     9.073000000     1.045000000    -0.918000000
C     8.635000000     0.169000000     1.040000000
H     9.427000000     0.709000000     1.553000000
C     7.820000000    -0.736000000     1.741000000
H     8.089000000    -0.990000000     2.763000000
C     6.763000000    -1.400000000     1.070000000
C     6.585000000    -1.148000000    -0.263000000
H     5.807000000    -1.719000000    -0.763000000
C     0.047000000    -2.418000000    -0.424000000
H    -0.752000000    -3.135000000    -0.595000000
C    -0.190000000    -1.059000000    -0.145000000
H    -1.160000000    -0.570000000    -0.121000000
C     0.878000000    -0.216000000     0.126000000
H     0.588000000     0.826000000     0.335000000
C     2.162000000    -0.635000000    -0.072000000
H     2.991000000     0.059000000     0.042000000
C     2.424000000    -1.926000000    -0.480000000
H     3.479000000    -2.145000000    -0.627000000
C     1.402000000    -2.917000000    -0.500000000
C     1.625000000    -4.381000000    -0.849000000
O     2.800000000    -4.770000000    -0.853000000
O     0.742000000    -5.056000000    -1.295000000
O    -2.193000000    -9.113000000    -1.210000000
H    -2.194000000    -8.156000000    -1.209000000
H    -2.962000000    -9.353000000    -1.727000000
O     4.702000000    -8.918000000    -1.695000000
H     4.547000000    -8.028000000    -2.011000000
H     3.986000000    -9.433000000    -2.066000000
O     0.012000000   -10.293000000    -3.029000000
H    -0.100000000    -9.343000000    -3.061000000
H    -0.680000000   -10.596000000    -2.441000000
O     5.961000000    -7.698000000     0.298000000
H     6.869000000    -7.549000000     0.033000000
H     5.556000000    -8.117000000    -0.461000000
O     4.232000000    -6.394000000    -2.592000000
H     3.807000000    -5.966000000    -1.849000000
H     3.871000000    -5.953000000    -3.361000000
O     0.427000000    -8.011000000     1.420000000
H     0.826000000    -8.097000000     0.555000000
H     0.411000000    -7.067000000     1.584000000
O     2.513000000    -3.756000000    -7.099000000
H     2.720000000    -3.566000000    -6.184000000
H     3.188000000    -3.294000000    -7.598000000
O     1.383000000    -7.679000000    -1.235000000
H     1.269000000    -6.738000000    -1.102000000
H     1.261000000    -7.804000000    -2.176000000
O     5.178000000    -3.623000000    -2.110000000
H     5.408000000    -4.551000000    -2.072000000
H     4.343000000    -3.564000000    -1.647000000
O     0.571000000    -7.522000000    -3.945000000
H     0.197000000    -7.838000000    -4.767000000
H     0.112000000    -6.699000000    -3.773000000
O    -1.959000000    -6.246000000    -1.462000000
H    -2.209000000    -5.859000000    -2.301000000
H    -1.197000000    -5.739000000    -1.182000000
O     5.576000000    -6.794000000     3.070000000
H     4.765000000    -6.524000000     2.639000000
H     6.001000000    -7.373000000     2.438000000
O     0.661000000    -4.387000000    -3.876000000
H     1.524000000    -3.982000000    -3.963000000
H     0.669000000    -4.783000000    -3.005000000
O     3.822000000    -6.206000000     1.199000000
H     3.383000000    -5.636000000     0.568000000
H     4.230000000    -6.886000000     0.664000000
O    -1.918000000    -5.411000000    -3.979000000
H    -1.168000000    -4.818000000    -4.020000000
H    -2.060000000    -5.680000000    -4.887000000
O     3.181000000    -8.453000000     3.705000000
H     2.669000000    -8.305000000     2.910000000
H     4.050000000    -8.107000000     3.498000000
O     3.414000000    -3.507000000    -4.531000000
H     3.478000000    -2.682000000    -4.050000000
H     4.318000000    -3.817000000    -4.595000000
O     6.936000000    -6.455000000    -2.921000000
H     7.366000000    -7.041000000    -2.297000000
H     6.001000000    -6.591000000    -2.771000000
O     0.356000000    -5.323000000    -6.399000000
H     0.378000000    -4.994000000    -5.501000000
H     1.163000000    -4.993000000    -6.794000000
