215
-1466.21745
C    -3.334000000    -3.863000000     1.193000000
H    -4.225000000    -3.366000000     0.819000000
C    -2.528000000    -3.219000000     2.098000000
C    -1.423000000    -3.962000000     2.575000000
H    -0.838000000    -3.496000000     3.364000000
C    -2.764000000    -1.752000000     2.457000000
O    -4.113000000    -1.284000000     2.253000000
H    -2.072000000    -1.104000000     1.900000000
O    -2.436000000    -1.557000000     3.812000000
C    -1.661000000    -0.466000000     4.130000000
C    -0.272000000    -0.647000000     4.272000000
H     0.177000000    -1.635000000     4.204000000
C     0.521000000     0.456000000     4.433000000
O     1.870000000     0.251000000     4.605000000
C    -0.043000000     1.803000000     4.465000000
C     0.913000000     3.047000000     4.635000000
H     0.352000000     3.914000000     4.988000000
C     1.583000000     3.324000000     3.332000000
C     0.937000000     4.229000000     2.466000000
H    -0.034000000     4.629000000     2.747000000
H     1.625000000     2.867000000     5.443000000
C    -1.376000000     1.967000000     4.282000000
H    -1.803000000     2.965000000     4.328000000
C    -2.171000000     0.846000000     4.045000000
C    -3.678000000     1.121000000     3.802000000
H    -3.912000000     2.157000000     4.058000000
H    -4.353000000     0.491000000     4.385000000
C    -3.922000000     1.085000000     2.298000000
C    -4.036000000     2.298000000     1.620000000
H    -3.853000000     3.206000000     2.190000000
C    -4.270000000    -0.055000000     1.608000000
C    -4.473000000    -0.035000000     0.212000000
H    -4.534000000    -0.921000000    -0.415000000
C    -4.563000000     1.196000000    -0.426000000
O    -4.672000000     1.180000000    -1.790000000
C    -3.480000000     1.316000000    -2.538000000
C    -3.363000000     0.249000000    -3.619000000
C    -2.483000000     0.407000000    -4.650000000
H    -1.736000000     1.194000000    -4.579000000
C    -4.069000000    -0.994000000    -3.433000000
H    -4.722000000    -1.104000000    -2.571000000
O    -3.186000000     2.641000000    -2.970000000
H    -2.654000000     1.053000000    -1.861000000
C    -4.328000000     2.350000000     0.316000000
C    -4.173000000     3.628000000    -0.470000000
H    -4.575000000     4.422000000     0.163000000
H    -4.705000000     3.685000000    -1.422000000
C    -2.702000000     3.808000000    -0.928000000
C    -1.750000000     4.455000000    -0.090000000
H    -2.014000000     4.845000000     0.890000000
C    -2.276000000     3.342000000    -2.197000000
C    -0.932000000     3.448000000    -2.601000000
H    -0.622000000     3.086000000    -3.578000000
C    -0.071000000     4.157000000    -1.828000000
O     1.273000000     4.254000000    -2.155000000
C     2.126000000     3.284000000    -1.533000000
C     2.948000000     2.641000000    -2.581000000
C     2.589000000     2.692000000    -3.899000000
H     1.707000000     3.215000000    -4.258000000
C     4.000000000     1.891000000    -2.150000000
H     4.158000000     1.940000000    -1.075000000
O     2.969000000     3.997000000    -0.553000000
H     1.503000000     2.523000000    -1.041000000
C    -0.422000000     4.595000000    -0.581000000
C     0.542000000     5.357000000     0.314000000
H     0.094000000     6.201000000     0.843000000
H     1.140000000     5.979000000    -0.355000000
C     1.371000000     4.467000000     1.183000000
C     2.548000000     3.923000000     0.771000000
C     3.281000000     3.111000000     1.619000000
H     4.181000000     2.604000000     1.282000000
C     2.742000000     2.697000000     2.884000000
O     3.381000000     1.650000000     3.509000000
C     2.700000000     0.411000000     3.364000000
H     2.082000000     0.395000000     2.454000000
C     3.581000000    -0.780000000     3.145000000
C     3.338000000    -2.028000000     3.799000000
H     2.476000000    -2.243000000     4.426000000
C     4.686000000    -0.591000000     2.315000000
H     4.869000000     0.363000000     1.829000000
C     5.620000000    -1.563000000     2.097000000
O     6.826000000    -1.348000000     1.451000000
C     5.373000000    -2.868000000     2.674000000
H     6.145000000    -3.630000000     2.612000000
C     4.285000000    -3.082000000     3.492000000
O     4.104000000    -4.239000000     4.148000000
C     2.815000000    -4.777000000     4.351000000
C     2.007000000    -5.130000000     3.348000000
H     2.397000000    -4.925000000     2.355000000
C     2.415000000    -4.976000000     5.703000000
H     3.018000000    -4.805000000     6.592000000
C     1.156000000    -5.560000000     5.912000000
H     0.861000000    -5.651000000     6.954000000
C     0.310000000    -5.928000000     4.862000000
H    -0.717000000    -6.284000000     4.890000000
C     0.786000000    -5.734000000     3.572000000
O    -0.055000000    -5.984000000     2.442000000
C    -1.133000000    -5.267000000     2.146000000
C    -2.085000000    -5.906000000     1.360000000
H    -1.988000000    -6.919000000     0.977000000
C    -3.143000000    -5.181000000     0.833000000
O    -4.035000000    -5.826000000     0.011000000
C    -4.723000000    -5.180000000    -0.944000000
C    -4.040000000    -4.578000000    -1.989000000
H    -2.989000000    -4.802000000    -2.155000000
C    -6.057000000    -4.911000000    -0.705000000
H    -6.498000000    -5.236000000     0.233000000
C    -6.747000000    -4.047000000    -1.530000000
H    -7.792000000    -3.859000000    -1.298000000
C    -6.149000000    -3.559000000    -2.642000000
H    -6.769000000    -3.027000000    -3.359000000
C    -4.765000000    -3.844000000    -2.879000000
O    -4.187000000    -3.366000000    -4.049000000
C    -3.763000000    -2.059000000    -4.280000000
C    -2.840000000    -1.891000000    -5.356000000
H    -2.521000000    -2.816000000    -5.829000000
C    -2.225000000    -0.616000000    -5.560000000
O    -1.373000000    -0.544000000    -6.576000000
C    -0.676000000     0.588000000    -6.861000000
C     0.717000000     0.606000000    -6.550000000
H     1.190000000    -0.286000000    -6.147000000
C    -1.286000000     1.716000000    -7.392000000
H    -2.358000000     1.711000000    -7.567000000
C    -0.540000000     2.922000000    -7.469000000
H    -0.960000000     3.859000000    -7.826000000
C     0.780000000     2.958000000    -6.993000000
H     1.273000000     3.924000000    -6.932000000
C     1.390000000     1.843000000    -6.478000000
O     2.741000000     1.906000000    -6.150000000
C     3.205000000     1.952000000    -4.881000000
C     4.288000000     1.158000000    -4.465000000
H     4.718000000     0.495000000    -5.212000000
C     4.678000000     1.114000000    -3.119000000
O     5.764000000     0.341000000    -2.824000000
C     6.448000000     0.524000000    -1.668000000
C     7.035000000     1.744000000    -1.259000000
H     6.908000000     2.656000000    -1.836000000
C     7.625000000     1.840000000    -0.017000000
H     8.212000000     2.716000000     0.251000000
C     7.600000000     0.803000000     0.847000000
H     7.910000000     0.946000000     1.879000000
C     6.999000000    -0.421000000     0.508000000
C     6.428000000    -0.559000000    -0.719000000
H     5.710000000    -1.339000000    -0.957000000
C    -0.346000000    -2.368000000    -0.486000000
H    -0.855000000    -3.256000000    -0.851000000
C    -1.080000000    -1.220000000    -0.381000000
H    -2.129000000    -1.239000000    -0.666000000
C    -0.513000000    -0.025000000    -0.066000000
H    -1.185000000     0.827000000     0.047000000
C     0.806000000    -0.044000000     0.201000000
H     1.194000000     0.956000000     0.375000000
C     1.591000000    -1.209000000     0.207000000
H     2.645000000    -1.219000000     0.470000000
C     0.997000000    -2.414000000    -0.197000000
C     1.921000000    -3.615000000    -0.343000000
O     3.094000000    -3.441000000    -0.343000000
O     1.484000000    -4.736000000    -0.686000000
O    -2.571000000    -8.324000000    -2.100000000
H    -2.011000000    -7.639000000    -1.735000000
H    -2.224000000    -8.473000000    -2.980000000
O     6.038000000    -6.373000000     2.361000000
H     6.885000000    -5.932000000     2.290000000
H     5.562000000    -6.103000000     1.576000000
O     2.984000000    -5.171000000    -6.432000000
H     3.014000000    -4.901000000    -7.350000000
H     2.803000000    -4.364000000    -5.950000000
O     4.473000000    -7.785000000    -2.332000000
H     4.907000000    -7.422000000    -3.105000000
H     3.975000000    -7.052000000    -1.971000000
O     2.884000000    -5.624000000    -2.815000000
H     2.504000000    -5.341000000    -1.983000000
H     2.137000000    -5.684000000    -3.411000000
O     2.581000000    -8.697000000     3.386000000
H     2.299000000    -7.885000000     2.966000000
H     3.514000000    -8.762000000     3.180000000
O     5.224000000    -6.471000000    -4.878000000
H     4.293000000    -6.656000000    -4.756000000
H     5.274000000    -5.517000000    -4.928000000
O     2.512000000    -9.643000000    -1.427000000
H     3.422000000    -9.539000000    -1.703000000
H     2.285000000    -8.802000000    -1.030000000
O     7.495000000    -3.842000000    -2.268000000
H     6.691000000    -3.352000000    -2.445000000
H     7.218000000    -4.558000000    -1.696000000
O     4.672000000    -5.654000000     0.394000000
H     4.016000000    -6.332000000     0.232000000
H     4.254000000    -4.843000000     0.107000000
O     0.136000000    -8.729000000     1.465000000
H    -0.796000000    -8.943000000     1.510000000
H     0.503000000    -9.083000000     2.275000000
O     4.558000000    -3.024000000    -2.606000000
H     4.324000000    -3.659000000    -3.283000000
H     4.103000000    -3.330000000    -1.822000000
O     2.653000000    -7.687000000    -4.793000000
H     2.789000000    -7.760000000    -3.849000000
H     1.946000000    -7.048000000    -4.884000000
O     0.679000000    -5.615000000    -4.315000000
H     0.469000000    -4.726000000    -4.028000000
H    -0.032000000    -5.847000000    -4.913000000
O    -0.487000000    -6.454000000    -1.723000000
H    -0.291000000    -6.238000000    -2.635000000
H     0.070000000    -5.866000000    -1.213000000
O     7.076000000    -6.228000000    -1.190000000
H     6.276000000    -6.082000000    -0.686000000
H     7.107000000    -7.176000000    -1.323000000
O     0.173000000    -2.961000000    -3.764000000
H     0.978000000    -2.456000000    -3.652000000
H    -0.422000000    -2.615000000    -3.099000000
O     2.019000000    -6.923000000     0.282000000
H     1.650000000    -6.107000000    -0.055000000
H     1.258000000    -7.432000000     0.563000000
O     2.421000000    -1.424000000    -3.972000000
H     3.162000000    -1.618000000    -3.398000000
H     2.275000000    -0.484000000    -3.866000000
