215
-1471.28053
C    -3.810000000    -3.267000000     1.967000000
H    -4.712000000    -2.756000000     1.641000000
C    -2.724000000    -2.726000000     2.677000000
C    -1.689000000    -3.570000000     2.994000000
H    -0.853000000    -3.145000000     3.544000000
C    -2.776000000    -1.280000000     3.098000000
O    -4.088000000    -0.763000000     2.930000000
H    -2.173000000    -0.773000000     2.330000000
O    -2.273000000    -1.136000000     4.426000000
C    -1.333000000    -0.166000000     4.529000000
C    -0.014000000    -0.472000000     4.497000000
H     0.459000000    -1.432000000     4.688000000
C     0.966000000     0.560000000     4.489000000
O     2.283000000     0.180000000     4.442000000
C     0.627000000     1.892000000     4.401000000
C     1.639000000     3.071000000     4.418000000
H     1.253000000     3.975000000     4.893000000
C     2.168000000     3.418000000     3.085000000
C     1.541000000     4.476000000     2.362000000
H     0.707000000     5.041000000     2.771000000
H     2.478000000     2.817000000     5.070000000
C    -0.749000000     2.194000000     4.394000000
H    -1.135000000     3.209000000     4.351000000
C    -1.722000000     1.158000000     4.434000000
C    -3.161000000     1.623000000     4.314000000
H    -3.272000000     2.597000000     4.794000000
H    -3.781000000     1.079000000     5.030000000
C    -3.691000000     1.623000000     2.875000000
C    -3.663000000     2.744000000     2.034000000
H    -3.226000000     3.672000000     2.394000000
C    -4.133000000     0.435000000     2.222000000
C    -4.509000000     0.399000000     0.893000000
H    -4.577000000    -0.507000000     0.297000000
C    -4.636000000     1.591000000     0.179000000
O    -4.813000000     1.539000000    -1.160000000
C    -3.577000000     1.371000000    -1.866000000
C    -3.584000000     0.183000000    -2.884000000
C    -2.727000000     0.249000000    -4.023000000
H    -2.018000000     1.070000000    -4.097000000
C    -4.452000000    -0.880000000    -2.696000000
H    -5.074000000    -0.840000000    -1.806000000
O    -3.251000000     2.645000000    -2.488000000
H    -2.938000000     1.121000000    -1.006000000
C    -4.087000000     2.751000000     0.736000000
C    -3.883000000     4.007000000    -0.141000000
H    -4.007000000     4.897000000     0.479000000
H    -4.605000000     3.999000000    -0.960000000
C    -2.494000000     4.118000000    -0.715000000
C    -1.401000000     4.666000000    -0.069000000
H    -1.532000000     5.061000000     0.935000000
C    -2.233000000     3.375000000    -1.910000000
C    -0.954000000     3.476000000    -2.468000000
H    -0.862000000     2.849000000    -3.351000000
C     0.063000000     4.140000000    -1.831000000
O     1.328000000     4.094000000    -2.383000000
C     2.192000000     3.016000000    -1.874000000
C     2.909000000     2.270000000    -2.945000000
C     2.413000000     2.313000000    -4.225000000
H     1.510000000     2.838000000    -4.525000000
C     4.004000000     1.455000000    -2.654000000
H     4.484000000     1.445000000    -1.679000000
O     3.094000000     3.670000000    -0.972000000
H     1.571000000     2.256000000    -1.377000000
C    -0.154000000     4.775000000    -0.647000000
C     0.989000000     5.395000000     0.096000000
H     0.681000000     6.218000000     0.746000000
H     1.751000000     5.736000000    -0.607000000
C     1.803000000     4.519000000     0.987000000
C     2.750000000     3.676000000     0.394000000
C     3.467000000     2.829000000     1.155000000
H     4.208000000     2.209000000     0.657000000
C     3.210000000     2.645000000     2.507000000
O     3.711000000     1.565000000     3.169000000
C     2.962000000     0.360000000     3.118000000
H     2.268000000     0.397000000     2.265000000
C     3.878000000    -0.834000000     2.746000000
C     3.392000000    -2.158000000     2.946000000
H     2.415000000    -2.411000000     3.348000000
C     5.059000000    -0.649000000     2.042000000
H     5.456000000     0.363000000     2.025000000
C     5.872000000    -1.683000000     1.646000000
O     7.082000000    -1.418000000     1.053000000
C     5.362000000    -2.953000000     1.801000000
H     5.898000000    -3.789000000     1.360000000
C     4.183000000    -3.223000000     2.443000000
O     3.905000000    -4.536000000     2.700000000
C     2.832000000    -4.906000000     3.488000000
C     1.657000000    -5.080000000     2.792000000
H     1.557000000    -5.029000000     1.711000000
C     2.903000000    -4.761000000     4.872000000
H     3.743000000    -4.335000000     5.416000000
C     1.778000000    -5.081000000     5.617000000
H     1.731000000    -4.877000000     6.684000000
C     0.622000000    -5.457000000     4.924000000
H    -0.273000000    -5.638000000     5.513000000
C     0.528000000    -5.423000000     3.543000000
O    -0.606000000    -5.800000000     2.898000000
C    -1.659000000    -4.979000000     2.646000000
C    -2.723000000    -5.458000000     1.843000000
H    -2.749000000    -6.511000000     1.575000000
C    -3.708000000    -4.595000000     1.501000000
O    -4.754000000    -5.169000000     0.855000000
C    -5.519000000    -4.482000000    -0.073000000
C    -4.916000000    -4.059000000    -1.246000000
H    -3.871000000    -4.207000000    -1.505000000
C    -6.844000000    -4.283000000     0.222000000
H    -7.271000000    -4.757000000     1.101000000
C    -7.606000000    -3.557000000    -0.654000000
H    -8.574000000    -3.107000000    -0.451000000
C    -7.037000000    -3.134000000    -1.852000000
H    -7.527000000    -2.449000000    -2.539000000
C    -5.706000000    -3.420000000    -2.167000000
O    -5.249000000    -2.985000000    -3.406000000
C    -4.481000000    -1.883000000    -3.683000000
C    -3.573000000    -1.877000000    -4.758000000
H    -3.493000000    -2.662000000    -5.505000000
C    -2.732000000    -0.803000000    -4.897000000
O    -1.723000000    -1.060000000    -5.831000000
C    -1.008000000    -0.060000000    -6.474000000
C     0.254000000     0.323000000    -6.001000000
H     0.666000000    -0.101000000    -5.089000000
C    -1.496000000     0.405000000    -7.717000000
H    -2.355000000    -0.118000000    -8.130000000
C    -0.786000000     1.359000000    -8.403000000
H    -1.261000000     1.628000000    -9.343000000
C     0.546000000     1.749000000    -8.033000000
H     1.197000000     2.295000000    -8.710000000
C     1.031000000     1.202000000    -6.789000000
O     2.328000000     1.381000000    -6.467000000
C     2.868000000     1.432000000    -5.206000000
C     3.994000000     0.635000000    -4.907000000
H     4.404000000     0.036000000    -5.716000000
C     4.545000000     0.603000000    -3.670000000
O     5.623000000    -0.260000000    -3.427000000
C     6.462000000    -0.074000000    -2.366000000
C     7.336000000     1.038000000    -2.285000000
H     7.323000000     1.673000000    -3.167000000
C     8.161000000     1.210000000    -1.198000000
H     8.823000000     2.072000000    -1.186000000
C     8.085000000     0.326000000    -0.108000000
H     8.732000000     0.488000000     0.751000000
C     7.186000000    -0.691000000    -0.111000000
C     6.342000000    -0.892000000    -1.230000000
H     5.662000000    -1.739000000    -1.177000000
C    -0.879000000    -2.513000000    -0.647000000
H    -1.732000000    -3.184000000    -0.592000000
C    -1.290000000    -1.190000000    -0.500000000
H    -2.349000000    -0.956000000    -0.577000000
C    -0.404000000    -0.156000000    -0.420000000
H    -0.761000000     0.853000000    -0.456000000
C     0.957000000    -0.468000000    -0.406000000
H     1.667000000     0.354000000    -0.372000000
C     1.405000000    -1.811000000    -0.519000000
H     2.469000000    -2.031000000    -0.489000000
C     0.441000000    -2.847000000    -0.602000000
C     0.937000000    -4.263000000    -0.901000000
O     2.005000000    -4.461000000    -1.491000000
O     0.151000000    -5.209000000    -0.733000000
O     1.059000000    -7.679000000    -1.878000000
H     0.601000000    -7.828000000    -1.052000000
H     1.023000000    -6.731000000    -2.004000000
O     2.476000000    -8.197000000    -4.174000000
H     2.034000000    -8.214000000    -3.325000000
H     2.168000000    -8.986000000    -4.620000000
O     3.402000000    -8.219000000    -0.517000000
H     3.896000000    -7.402000000    -0.584000000
H     2.508000000    -7.979000000    -0.761000000
O    -0.748000000    -9.999000000     1.865000000
H    -0.246000000    -9.193000000     1.743000000
H    -1.367000000    -9.792000000     2.564000000
O     5.883000000    -6.912000000     1.187000000
H     5.165000000    -6.375000000     0.852000000
H     6.393000000    -7.141000000     0.410000000
O     2.506000000   -10.388000000     0.997000000
H     3.060000000    -9.697000000     0.635000000
H     2.268000000   -10.073000000     1.869000000
O    -0.392000000    -6.665000000    -4.934000000
H    -0.007000000    -5.789000000    -4.902000000
H    -1.210000000    -6.586000000    -4.445000000
O     4.355000000    -5.449000000    -0.653000000
H     4.886000000    -5.110000000    -1.374000000
H     3.606000000    -4.854000000    -0.607000000
O     3.001000000    -5.524000000    -3.544000000
H     2.684000000    -5.222000000    -2.693000000
H     2.657000000    -6.414000000    -3.626000000
O     0.668000000   -10.585000000    -2.718000000
H    -0.091000000   -10.701000000    -3.290000000
H     0.640000000    -9.662000000    -2.467000000
O    -0.235000000    -3.576000000    -4.477000000
H    -0.679000000    -3.535000000    -5.324000000
H     0.203000000    -2.729000000    -4.395000000
O    -1.784000000    -5.063000000    -2.804000000
H    -1.400000000    -4.364000000    -3.333000000
H    -1.236000000    -5.099000000    -2.020000000
O     6.563000000    -7.043000000    -3.281000000
H     6.132000000    -6.372000000    -3.811000000
H     6.252000000    -7.871000000    -3.646000000
O     2.472000000    -2.552000000    -3.539000000
H     2.148000000    -3.292000000    -3.025000000
H     3.028000000    -2.064000000    -2.932000000
O    -0.151000000    -7.388000000     0.681000000
H    -0.296000000    -6.538000000     0.264000000
H     0.188000000    -7.174000000     1.550000000
O    -3.798000000    -7.019000000    -3.631000000
H    -4.319000000    -6.375000000    -4.110000000
H    -3.129000000    -6.502000000    -3.184000000
O     2.280000000    -3.872000000    -5.950000000
H     2.566000000    -3.066000000    -5.520000000
H     2.265000000    -4.525000000    -5.251000000
O     5.218000000    -3.688000000    -2.598000000
H     4.495000000    -3.946000000    -3.171000000
H     5.950000000    -3.531000000    -3.193000000
O     5.154000000    -5.337000000    -5.266000000
H     5.217000000    -4.428000000    -5.561000000
H     4.433000000    -5.334000000    -4.636000000
