215
-1445.72340
C    -3.372000000    -2.820000000     1.761000000
H    -3.791000000    -1.990000000     1.199000000
C    -2.557000000    -2.531000000     2.814000000
C    -1.824000000    -3.549000000     3.501000000
H    -1.144000000    -3.295000000     4.310000000
C    -2.350000000    -1.064000000     3.316000000
O    -3.553000000    -0.364000000     3.203000000
H    -1.699000000    -0.608000000     2.555000000
O    -1.809000000    -1.052000000     4.674000000
C    -0.779000000    -0.185000000     4.793000000
C     0.523000000    -0.681000000     4.677000000
H     0.742000000    -1.722000000     4.455000000
C     1.608000000     0.166000000     4.601000000
O     2.856000000    -0.399000000     4.177000000
C     1.388000000     1.567000000     4.510000000
C     2.577000000     2.499000000     4.252000000
H     2.520000000     3.426000000     4.825000000
C     2.861000000     2.770000000     2.782000000
C     2.390000000     3.935000000     2.182000000
H     1.769000000     4.615000000     2.760000000
H     3.454000000     1.984000000     4.649000000
C     0.113000000     2.088000000     4.573000000
H    -0.007000000     3.165000000     4.481000000
C    -1.024000000     1.186000000     4.764000000
C    -2.461000000     1.809000000     4.704000000
H    -2.406000000     2.815000000     5.125000000
H    -3.064000000     1.190000000     5.372000000
C    -2.986000000     1.981000000     3.282000000
C    -2.959000000     3.225000000     2.613000000
H    -2.695000000     4.122000000     3.168000000
C    -3.571000000     0.897000000     2.598000000
C    -4.043000000     1.009000000     1.291000000
H    -4.393000000     0.054000000     0.908000000
C    -3.984000000     2.258000000     0.688000000
O    -4.354000000     2.328000000    -0.612000000
C    -3.371000000     2.094000000    -1.636000000
C    -3.899000000     1.102000000    -2.658000000
C    -3.208000000     0.992000000    -3.886000000
H    -2.306000000     1.567000000    -4.075000000
C    -5.071000000     0.289000000    -2.419000000
H    -5.577000000     0.307000000    -1.457000000
O    -3.015000000     3.329000000    -2.247000000
H    -2.481000000     1.604000000    -1.212000000
C    -3.436000000     3.363000000     1.283000000
C    -3.178000000     4.678000000     0.472000000
H    -3.127000000     5.494000000     1.196000000
H    -3.938000000     4.894000000    -0.281000000
C    -1.856000000     4.589000000    -0.363000000
C    -0.634000000     4.989000000     0.207000000
H    -0.597000000     5.452000000     1.190000000
C    -1.914000000     4.001000000    -1.618000000
C    -0.715000000     3.935000000    -2.359000000
H    -0.712000000     3.307000000    -3.247000000
C     0.463000000     4.476000000    -1.858000000
O     1.648000000     4.229000000    -2.577000000
C     2.389000000     3.051000000    -2.113000000
C     2.838000000     2.197000000    -3.297000000
C     1.961000000     2.033000000    -4.427000000
H     0.986000000     2.514000000    -4.432000000
C     4.010000000     1.475000000    -3.209000000
H     4.579000000     1.465000000    -2.283000000
O     3.451000000     3.437000000    -1.268000000
H     1.659000000     2.462000000    -1.539000000
C     0.551000000     4.960000000    -0.542000000
C     1.843000000     5.349000000     0.098000000
H     1.773000000     6.163000000     0.822000000
H     2.488000000     5.766000000    -0.677000000
C     2.563000000     4.161000000     0.815000000
C     3.316000000     3.220000000     0.102000000
C     3.894000000     2.110000000     0.685000000
H     4.571000000     1.439000000     0.163000000
C     3.622000000     1.861000000     2.045000000
O     4.087000000     0.662000000     2.525000000
C     3.161000000    -0.405000000     2.790000000
H     2.286000000    -0.268000000     2.139000000
C     3.719000000    -1.701000000     2.282000000
C     3.476000000    -2.950000000     2.957000000
H     3.076000000    -2.987000000     3.967000000
C     4.297000000    -1.789000000     1.025000000
H     4.632000000    -0.883000000     0.525000000
C     4.555000000    -2.970000000     0.423000000
O     5.160000000    -3.024000000    -0.806000000
C     4.167000000    -4.150000000     0.969000000
H     4.363000000    -5.075000000     0.432000000
C     3.719000000    -4.137000000     2.316000000
O     3.636000000    -5.348000000     3.002000000
C     2.568000000    -5.611000000     3.780000000
C     1.319000000    -5.379000000     3.220000000
H     1.198000000    -4.956000000     2.226000000
C     2.785000000    -6.144000000     5.079000000
H     3.823000000    -6.256000000     5.382000000
C     1.635000000    -6.567000000     5.795000000
H     1.724000000    -7.142000000     6.714000000
C     0.374000000    -6.323000000     5.300000000
H    -0.494000000    -6.644000000     5.871000000
C     0.193000000    -5.767000000     4.004000000
O    -1.092000000    -5.814000000     3.536000000
C    -1.864000000    -4.828000000     2.994000000
C    -2.847000000    -5.183000000     1.996000000
H    -2.872000000    -6.214000000     1.653000000
C    -3.529000000    -4.162000000     1.321000000
O    -4.349000000    -4.482000000     0.233000000
C    -5.398000000    -3.687000000    -0.217000000
C    -5.362000000    -3.102000000    -1.502000000
H    -4.498000000    -3.286000000    -2.135000000
C    -6.514000000    -3.473000000     0.634000000
H    -6.754000000    -4.149000000     1.450000000
C    -7.527000000    -2.598000000     0.244000000
H    -8.462000000    -2.403000000     0.762000000
C    -7.463000000    -2.020000000    -0.989000000
H    -8.213000000    -1.349000000    -1.401000000
C    -6.405000000    -2.270000000    -1.870000000
O    -6.432000000    -1.570000000    -3.047000000
C    -5.396000000    -0.731000000    -3.339000000
C    -4.608000000    -0.872000000    -4.517000000
H    -4.904000000    -1.667000000    -5.196000000
C    -3.556000000     0.040000000    -4.832000000
O    -2.782000000    -0.235000000    -5.958000000
C    -1.859000000     0.665000000    -6.444000000
C    -0.463000000     0.530000000    -6.249000000
H    -0.079000000    -0.260000000    -5.609000000
C    -2.320000000     1.549000000    -7.390000000
H    -3.378000000     1.661000000    -7.612000000
C    -1.459000000     2.419000000    -8.027000000
H    -1.919000000     3.142000000    -8.695000000
C    -0.069000000     2.323000000    -7.834000000
H     0.562000000     3.032000000    -8.364000000
C     0.429000000     1.403000000    -6.907000000
O     1.740000000     1.222000000    -6.733000000
C     2.417000000     1.313000000    -5.550000000
C     3.739000000     0.802000000    -5.534000000
H     4.149000000     0.311000000    -6.413000000
C     4.465000000     0.806000000    -4.342000000
O     5.653000000     0.089000000    -4.292000000
C     6.188000000    -0.438000000    -3.171000000
C     7.373000000     0.031000000    -2.592000000
H     8.039000000     0.778000000    -3.017000000
C     7.724000000    -0.422000000    -1.321000000
H     8.606000000     0.039000000    -0.885000000
C     7.039000000    -1.451000000    -0.688000000
H     7.238000000    -1.735000000     0.342000000
C     5.922000000    -2.044000000    -1.310000000
C     5.505000000    -1.435000000    -2.502000000
H     4.539000000    -1.705000000    -2.921000000
C    -1.644000000    -1.391000000    -1.131000000
H    -2.614000000    -1.871000000    -1.238000000
C    -1.453000000    -0.677000000     0.005000000
H    -2.304000000    -0.530000000     0.666000000
C    -0.285000000    -0.004000000     0.249000000
H    -0.225000000     0.691000000     1.060000000
C     0.806000000    -0.242000000    -0.571000000
H     1.724000000     0.291000000    -0.337000000
C     0.602000000    -0.982000000    -1.737000000
H     1.401000000    -1.163000000    -2.452000000
C    -0.639000000    -1.537000000    -2.104000000
C    -0.740000000    -2.484000000    -3.268000000
O     0.205000000    -2.878000000    -3.934000000
O    -1.719000000    -3.163000000    -3.367000000
O    -4.638000000     3.141000000    -5.653000000
H    -5.564000000     3.333000000    -5.504000000
H    -4.502000000     2.287000000    -5.242000000
O     2.387000000    -3.964000000    -3.231000000
H     2.321000000    -3.996000000    -2.277000000
H     1.590000000    -3.514000000    -3.511000000
O     0.413000000    -8.865000000    -5.447000000
H    -0.478000000    -8.518000000    -5.492000000
H     0.842000000    -8.337000000    -4.774000000
O     0.890000000    -6.122000000    -0.370000000
H     1.549000000    -5.477000000    -0.626000000
H     0.054000000    -5.710000000    -0.588000000
O    -1.484000000    -4.911000000    -1.122000000
H    -1.867000000    -4.063000000    -1.345000000
H    -1.948000000    -5.537000000    -1.679000000
O    -4.664000000    -5.767000000    -5.201000000
H    -5.619000000    -5.733000000    -5.133000000
H    -4.459000000    -6.701000000    -5.228000000
O    -5.187000000    -4.292000000    -7.597000000
H    -4.807000000    -4.139000000    -6.732000000
H    -5.968000000    -4.818000000    -7.427000000
O    -0.112000000    -6.074000000    -4.720000000
H    -0.695000000    -6.686000000    -5.169000000
H    -0.701000000    -5.472000000    -4.266000000
O     2.634000000    -5.736000000    -5.397000000
H     1.708000000    -5.977000000    -5.378000000
H     2.708000000    -5.018000000    -4.768000000
O    -0.207000000    -8.466000000     0.512000000
H     0.063000000    -8.443000000     1.430000000
H     0.126000000    -7.648000000     0.143000000
O     1.359000000    -3.499000000    -0.331000000
H     1.547000000    -3.332000000     0.593000000
H     0.407000000    -3.424000000    -0.399000000
O    -5.273000000    -6.864000000    -0.480000000
H    -5.042000000    -5.936000000    -0.524000000
H    -5.850000000    -7.003000000    -1.231000000
O    -2.741000000    -5.516000000    -3.468000000
H    -3.477000000    -5.484000000    -4.079000000
H    -2.394000000    -4.624000000    -3.464000000
O     1.978000000    -1.947000000    -5.836000000
H     1.339000000    -2.254000000    -5.192000000
H     2.775000000    -1.793000000    -5.329000000
O    -1.009000000    -3.690000000    -6.430000000
H    -1.733000000    -3.065000000    -6.417000000
H    -0.527000000    -3.514000000    -5.622000000
O    -2.370000000    -8.144000000    -3.105000000
H    -2.102000000    -7.231000000    -3.209000000
H    -2.601000000    -8.429000000    -3.990000000
O     1.204000000    -3.188000000    -8.054000000
H     0.283000000    -3.348000000    -7.848000000
H     1.533000000    -2.692000000    -7.305000000
O     5.126000000    -4.328000000    -5.539000000
H     4.247000000    -4.707000000    -5.537000000
H     5.712000000    -5.083000000    -5.579000000
O    -1.088000000    -6.087000000    -8.071000000
H    -1.182000000    -5.325000000    -7.499000000
H    -0.152000000    -6.121000000    -8.273000000
