215
-1458.83504
C    -3.632000000    -3.120000000     2.501000000
H    -4.374000000    -2.450000000     2.076000000
C    -2.541000000    -2.568000000     3.199000000
C    -1.542000000    -3.379000000     3.604000000
H    -0.682000000    -2.940000000     4.103000000
C    -2.431000000    -1.056000000     3.287000000
O    -3.725000000    -0.450000000     3.274000000
H    -1.783000000    -0.770000000     2.446000000
O    -1.730000000    -0.652000000     4.549000000
C    -0.819000000     0.328000000     4.487000000
C     0.557000000     0.080000000     4.535000000
H     0.947000000    -0.921000000     4.696000000
C     1.427000000     1.120000000     4.203000000
O     2.798000000     0.789000000     4.076000000
C     1.007000000     2.404000000     3.960000000
C     1.975000000     3.553000000     3.721000000
H     1.585000000     4.444000000     4.216000000
C     2.277000000     3.764000000     2.257000000
C     1.549000000     4.754000000     1.548000000
H     0.841000000     5.363000000     2.104000000
H     2.891000000     3.471000000     4.310000000
C    -0.389000000     2.698000000     4.100000000
H    -0.751000000     3.701000000     3.891000000
C    -1.298000000     1.654000000     4.352000000
C    -2.805000000     2.111000000     4.283000000
H    -3.000000000     3.088000000     4.730000000
H    -3.431000000     1.503000000     4.941000000
C    -3.481000000     1.935000000     2.954000000
C    -3.478000000     3.022000000     2.030000000
H    -3.161000000     4.016000000     2.333000000
C    -3.858000000     0.665000000     2.512000000
C    -4.383000000     0.436000000     1.252000000
H    -4.707000000    -0.539000000     0.895000000
C    -4.559000000     1.532000000     0.411000000
O    -4.881000000     1.219000000    -0.877000000
C    -3.716000000     1.025000000    -1.749000000
C    -3.741000000    -0.379000000    -2.429000000
C    -2.623000000    -0.601000000    -3.169000000
H    -1.876000000     0.165000000    -3.361000000
C    -4.735000000    -1.285000000    -2.188000000
H    -5.538000000    -1.007000000    -1.510000000
O    -3.415000000     2.182000000    -2.675000000
H    -2.916000000     1.017000000    -0.995000000
C    -3.980000000     2.785000000     0.759000000
C    -3.924000000     3.869000000    -0.310000000
H    -4.095000000     4.850000000     0.137000000
H    -4.820000000     3.682000000    -0.907000000
C    -2.614000000     3.888000000    -1.074000000
C    -1.588000000     4.632000000    -0.658000000
H    -1.730000000     5.273000000     0.208000000
C    -2.441000000     3.085000000    -2.226000000
C    -1.270000000     3.143000000    -2.939000000
H    -1.159000000     2.524000000    -3.826000000
C    -0.201000000     3.938000000    -2.460000000
O     0.944000000     3.854000000    -3.195000000
C     1.934000000     3.028000000    -2.523000000
C     2.655000000     2.098000000    -3.526000000
C     1.962000000     1.620000000    -4.677000000
H     0.971000000     2.019000000    -4.877000000
C     3.928000000     1.598000000    -3.315000000
H     4.554000000     1.950000000    -2.499000000
O     2.826000000     3.889000000    -1.805000000
H     1.427000000     2.374000000    -1.799000000
C    -0.325000000     4.665000000    -1.260000000
C     0.762000000     5.553000000    -0.820000000
H     0.236000000     6.356000000    -0.298000000
H     1.274000000     5.914000000    -1.715000000
C     1.710000000     4.790000000     0.126000000
C     2.676000000     3.950000000    -0.462000000
C     3.416000000     3.070000000     0.266000000
H     4.088000000     2.360000000    -0.209000000
C     3.240000000     3.014000000     1.635000000
O     3.971000000     2.024000000     2.216000000
C     3.213000000     0.816000000     2.610000000
H     2.402000000     0.619000000     1.894000000
C     4.046000000    -0.389000000     2.292000000
C     3.699000000    -1.634000000     2.714000000
H     2.807000000    -1.777000000     3.319000000
C     5.238000000    -0.260000000     1.538000000
H     5.541000000     0.688000000     1.099000000
C     5.932000000    -1.391000000     1.021000000
O     7.003000000    -1.369000000     0.188000000
C     5.530000000    -2.638000000     1.484000000
H     6.012000000    -3.517000000     1.063000000
C     4.347000000    -2.783000000     2.287000000
O     4.027000000    -4.058000000     2.641000000
C     3.042000000    -4.411000000     3.492000000
C     1.780000000    -4.722000000     3.084000000
H     1.606000000    -4.760000000     2.012000000
C     3.330000000    -4.329000000     4.850000000
H     4.315000000    -3.995000000     5.166000000
C     2.351000000    -4.700000000     5.808000000
H     2.605000000    -4.454000000     6.836000000
C     1.096000000    -5.118000000     5.434000000
H     0.348000000    -5.398000000     6.172000000
C     0.749000000    -5.033000000     4.062000000
O    -0.399000000    -5.576000000     3.583000000
C    -1.543000000    -4.746000000     3.267000000
C    -2.600000000    -5.295000000     2.664000000
H    -2.662000000    -6.376000000     2.566000000
C    -3.715000000    -4.504000000     2.298000000
O    -4.834000000    -5.159000000     1.841000000
C    -5.747000000    -4.609000000     0.884000000
C    -5.201000000    -3.966000000    -0.293000000
H    -4.139000000    -4.154000000    -0.429000000
C    -7.119000000    -4.736000000     1.101000000
H    -7.349000000    -5.179000000     2.066000000
C    -7.986000000    -4.180000000     0.161000000
H    -9.061000000    -4.205000000     0.326000000
C    -7.525000000    -3.620000000    -1.016000000
H    -8.277000000    -3.229000000    -1.697000000
C    -6.106000000    -3.613000000    -1.300000000
O    -5.644000000    -3.392000000    -2.577000000
C    -4.672000000    -2.507000000    -2.762000000
C    -3.530000000    -2.807000000    -3.522000000
H    -3.489000000    -3.736000000    -4.084000000
C    -2.615000000    -1.826000000    -3.831000000
O    -1.676000000    -2.117000000    -4.740000000
C    -1.203000000    -1.137000000    -5.586000000
C     0.095000000    -0.865000000    -5.830000000
H     0.804000000    -1.267000000    -5.111000000
C    -2.132000000    -0.424000000    -6.411000000
H    -3.191000000    -0.633000000    -6.275000000
C    -1.757000000     0.555000000    -7.297000000
H    -2.477000000     1.207000000    -7.786000000
C    -0.388000000     0.804000000    -7.387000000
H    -0.005000000     1.704000000    -7.861000000
C     0.527000000     0.069000000    -6.696000000
O     1.902000000     0.316000000    -6.702000000
C     2.596000000     0.749000000    -5.616000000
C     3.864000000     0.276000000    -5.355000000
H     4.315000000    -0.411000000    -6.066000000
C     4.506000000     0.708000000    -4.200000000
O     5.769000000     0.243000000    -4.047000000
C     6.491000000     0.436000000    -2.892000000
C     7.375000000     1.490000000    -2.794000000
H     7.690000000     2.068000000    -3.659000000
C     8.252000000     1.558000000    -1.722000000
H     9.147000000     2.169000000    -1.815000000
C     8.226000000     0.566000000    -0.710000000
H     9.028000000     0.339000000    -0.012000000
C     7.141000000    -0.347000000    -0.752000000
C     6.319000000    -0.456000000    -1.863000000
H     5.679000000    -1.332000000    -1.932000000
C    -0.963000000    -2.327000000    -0.184000000
H    -1.633000000    -3.180000000    -0.123000000
C    -1.361000000    -1.050000000     0.077000000
H    -2.365000000    -0.740000000     0.354000000
C    -0.346000000     0.007000000     0.034000000
H    -0.711000000     1.038000000     0.201000000
C     1.009000000    -0.326000000    -0.270000000
H     1.768000000     0.451000000    -0.305000000
C     1.377000000    -1.671000000    -0.395000000
H     2.435000000    -1.900000000    -0.499000000
C     0.399000000    -2.704000000    -0.469000000
C     0.670000000    -4.201000000    -0.584000000
O     1.821000000    -4.469000000    -0.871000000
O    -0.237000000    -5.028000000    -0.525000000
O     2.503000000    -8.303000000     3.308000000
H     1.668000000    -7.936000000     3.599000000
H     2.398000000    -9.249000000     3.409000000
O     2.436000000    -9.571000000    -2.398000000
H     2.085000000   -10.227000000    -1.796000000
H     2.536000000    -8.784000000    -1.863000000
O     2.242000000    -6.301000000    -2.963000000
H     3.171000000    -6.528000000    -2.927000000
H     2.084000000    -5.811000000    -2.156000000
O     2.193000000    -8.090000000    -0.031000000
H     2.698000000    -7.345000000     0.295000000
H     1.281000000    -7.857000000     0.145000000
O    -1.459000000    -9.762000000     1.212000000
H    -1.957000000    -9.687000000     2.027000000
H    -1.128000000    -8.878000000     1.052000000
O     0.183000000    -7.782000000    -3.767000000
H    -0.467000000    -7.082000000    -3.832000000
H     0.968000000    -7.348000000    -3.433000000
O     3.914000000    -5.662000000     0.337000000
H     4.130000000    -5.279000000     1.187000000
H     3.153000000    -5.165000000     0.037000000
O     5.515000000    -4.756000000    -4.868000000
H     5.472000000    -4.287000000    -4.035000000
H     5.756000000    -5.650000000    -4.627000000
O    -0.219000000   -10.498000000    -3.339000000
H    -1.133000000   -10.318000000    -3.558000000
H     0.219000000    -9.651000000    -3.425000000
O    -0.681000000    -4.560000000    -4.067000000
H    -0.956000000    -3.863000000    -4.663000000
H     0.250000000    -4.395000000    -3.919000000
O    -2.484000000    -5.665000000    -1.825000000
H    -2.241000000    -5.159000000    -2.600000000
H    -1.693000000    -5.672000000    -1.286000000
O     2.466000000    -3.236000000    -3.210000000
H     3.387000000    -3.298000000    -2.954000000
H     1.983000000    -3.562000000    -2.451000000
O    -0.719000000    -7.081000000     0.914000000
H    -0.775000000    -6.510000000     0.149000000
H    -0.577000000    -6.484000000     1.649000000
O    -3.193000000    -9.004000000    -2.418000000
H    -3.317000000    -8.979000000    -3.367000000
H    -2.688000000    -8.215000000    -2.221000000
O     3.270000000    -3.785000000    -6.247000000
H     2.878000000    -3.303000000    -5.519000000
H     4.074000000    -4.157000000    -5.883000000
O     5.012000000    -3.700000000    -2.304000000
H     4.673000000    -4.145000000    -1.528000000
H     5.962000000    -3.794000000    -2.239000000
O     4.797000000    -6.911000000    -2.002000000
H     4.713000000    -6.484000000    -1.150000000
H     5.216000000    -7.750000000    -1.809000000
O     1.270000000    -5.808000000    -6.476000000
H     1.810000000    -5.022000000    -6.391000000
H     1.880000000    -6.533000000    -6.344000000
O    -5.100000000    -7.154000000    -1.464000000
H    -4.508000000    -6.403000000    -1.409000000
H    -4.527000000    -7.899000000    -1.645000000
