215
-1455.54611
C    -2.889000000    -2.351000000     1.451000000
H    -3.387000000    -1.602000000     0.841000000
C    -2.353000000    -2.054000000     2.708000000
C    -1.685000000    -3.082000000     3.409000000
H    -1.246000000    -2.788000000     4.359000000
C    -2.364000000    -0.658000000     3.077000000
O    -3.628000000     0.004000000     2.980000000
H    -1.603000000    -0.174000000     2.446000000
O    -1.846000000    -0.481000000     4.373000000
C    -0.768000000     0.383000000     4.530000000
C     0.494000000    -0.219000000     4.520000000
H     0.627000000    -1.293000000     4.620000000
C     1.537000000     0.596000000     4.436000000
O     2.782000000    -0.003000000     4.296000000
C     1.425000000     1.965000000     4.385000000
C     2.718000000     2.794000000     4.142000000
H     2.515000000     3.824000000     4.442000000
C     3.127000000     2.805000000     2.696000000
C     2.595000000     3.890000000     1.924000000
H     1.913000000     4.608000000     2.372000000
H     3.468000000     2.347000000     4.798000000
C     0.194000000     2.599000000     4.427000000
H     0.118000000     3.661000000     4.207000000
C    -0.950000000     1.779000000     4.454000000
C    -2.302000000     2.325000000     4.444000000
H    -2.227000000     3.336000000     4.849000000
H    -3.028000000     1.773000000     5.045000000
C    -2.764000000     2.347000000     3.000000000
C    -2.647000000     3.541000000     2.302000000
H    -2.115000000     4.380000000     2.743000000
C    -3.483000000     1.282000000     2.405000000
C    -3.974000000     1.395000000     1.056000000
H    -4.440000000     0.566000000     0.530000000
C    -3.915000000     2.639000000     0.376000000
O    -4.409000000     2.712000000    -0.945000000
C    -3.493000000     2.543000000    -2.036000000
C    -3.982000000     1.596000000    -3.143000000
C    -3.511000000     1.745000000    -4.466000000
H    -2.750000000     2.484000000    -4.702000000
C    -4.727000000     0.471000000    -2.795000000
H    -4.941000000     0.251000000    -1.752000000
O    -3.027000000     3.778000000    -2.520000000
H    -2.623000000     2.010000000    -1.625000000
C    -3.222000000     3.741000000     0.971000000
C    -2.999000000     5.022000000     0.171000000
H    -2.767000000     5.726000000     0.973000000
H    -3.880000000     5.390000000    -0.359000000
C    -1.762000000     4.869000000    -0.709000000
C    -0.527000000     5.107000000    -0.181000000
H    -0.358000000     5.576000000     0.785000000
C    -1.875000000     4.324000000    -2.020000000
C    -0.703000000     3.998000000    -2.664000000
H    -0.829000000     3.488000000    -3.616000000
C     0.543000000     4.252000000    -2.161000000
O     1.569000000     3.691000000    -2.849000000
C     2.050000000     2.457000000    -2.232000000
C     2.355000000     1.326000000    -3.197000000
C     1.721000000     1.170000000    -4.411000000
H     1.063000000     1.937000000    -4.811000000
C     3.260000000     0.279000000    -2.865000000
H     3.856000000     0.256000000    -1.956000000
O     3.254000000     2.742000000    -1.481000000
H     1.316000000     2.090000000    -1.499000000
C     0.620000000     4.824000000    -0.898000000
C     1.960000000     5.078000000    -0.268000000
H     1.850000000     5.971000000     0.350000000
H     2.565000000     5.323000000    -1.144000000
C     2.576000000     3.942000000     0.532000000
C     3.218000000     2.882000000    -0.133000000
C     3.702000000     1.833000000     0.560000000
H     4.095000000     0.993000000    -0.008000000
C     3.705000000     1.803000000     1.982000000
O     4.220000000     0.662000000     2.583000000
C     3.299000000    -0.346000000     3.006000000
H     2.465000000    -0.264000000     2.294000000
C     3.792000000    -1.771000000     2.878000000
C     3.374000000    -2.745000000     3.808000000
H     2.623000000    -2.612000000     4.582000000
C     4.621000000    -2.094000000     1.871000000
H     4.944000000    -1.237000000     1.285000000
C     5.037000000    -3.421000000     1.694000000
O     6.111000000    -3.630000000     0.885000000
C     4.683000000    -4.373000000     2.606000000
H     5.040000000    -5.399000000     2.601000000
C     3.829000000    -4.055000000     3.650000000
O     3.449000000    -5.058000000     4.499000000
C     2.195000000    -5.323000000     4.839000000
C     1.160000000    -5.193000000     3.960000000
H     1.350000000    -4.744000000     2.988000000
C     2.086000000    -5.803000000     6.107000000
H     2.977000000    -6.103000000     6.653000000
C     0.860000000    -6.245000000     6.553000000
H     0.665000000    -6.431000000     7.607000000
C    -0.302000000    -6.025000000     5.733000000
H    -1.293000000    -6.295000000     6.089000000
C    -0.111000000    -5.515000000     4.445000000
O    -1.208000000    -5.456000000     3.576000000
C    -1.690000000    -4.378000000     2.855000000
C    -2.305000000    -4.676000000     1.638000000
H    -2.317000000    -5.718000000     1.328000000
C    -2.871000000    -3.662000000     0.930000000
O    -3.510000000    -3.906000000    -0.246000000
C    -4.687000000    -3.345000000    -0.694000000
C    -4.672000000    -2.772000000    -1.905000000
H    -3.770000000    -2.779000000    -2.512000000
C    -5.897000000    -3.333000000     0.095000000
H    -6.010000000    -3.722000000     1.104000000
C    -7.101000000    -2.870000000    -0.492000000
H    -7.959000000    -2.799000000     0.170000000
C    -7.022000000    -2.174000000    -1.692000000
H    -7.910000000    -1.628000000    -2.002000000
C    -5.849000000    -2.170000000    -2.415000000
O    -5.900000000    -1.569000000    -3.630000000
C    -5.140000000    -0.382000000    -3.807000000
C    -4.773000000    -0.178000000    -5.122000000
H    -5.145000000    -0.868000000    -5.876000000
C    -3.889000000     0.884000000    -5.463000000
O    -3.511000000     0.912000000    -6.796000000
C    -2.153000000     1.279000000    -7.101000000
C    -1.142000000     0.477000000    -6.613000000
H    -1.379000000    -0.379000000    -5.986000000
C    -1.920000000     2.451000000    -7.844000000
H    -2.756000000     3.067000000    -8.165000000
C    -0.621000000     2.809000000    -8.098000000
H    -0.410000000     3.773000000    -8.555000000
C     0.459000000     1.950000000    -7.725000000
H     1.491000000     2.234000000    -7.915000000
C     0.192000000     0.826000000    -6.840000000
O     1.221000000    -0.025000000    -6.419000000
C     1.900000000     0.076000000    -5.222000000
C     2.822000000    -0.941000000    -4.830000000
H     3.019000000    -1.890000000    -5.323000000
C     3.387000000    -0.899000000    -3.595000000
O     4.123000000    -1.975000000    -3.129000000
C     5.181000000    -1.977000000    -2.231000000
C     6.396000000    -1.263000000    -2.454000000
H     6.438000000    -0.690000000    -3.377000000
C     7.488000000    -1.378000000    -1.651000000
H     8.436000000    -0.877000000    -1.830000000
C     7.377000000    -2.192000000    -0.580000000
H     8.208000000    -2.309000000     0.111000000
C     6.234000000    -2.967000000    -0.332000000
C     5.089000000    -2.843000000    -1.109000000
H     4.223000000    -3.470000000    -0.909000000
C    -0.574000000    -0.441000000    -1.896000000
H    -1.280000000    -0.015000000    -2.604000000
C    -0.404000000     0.191000000    -0.609000000
H    -0.862000000     1.109000000    -0.252000000
C     0.427000000    -0.391000000     0.366000000
H     0.607000000     0.058000000     1.362000000
C     1.165000000    -1.519000000     0.033000000
H     1.915000000    -1.860000000     0.742000000
C     1.086000000    -2.083000000    -1.264000000
H     1.706000000    -2.965000000    -1.403000000
C     0.125000000    -1.603000000    -2.159000000
C    -0.179000000    -2.563000000    -3.303000000
O     0.647000000    -3.442000000    -3.661000000
O    -1.127000000    -2.372000000    -3.984000000
O     1.936000000    -5.695000000     0.937000000
H     1.567000000    -5.337000000     0.129000000
H     2.637000000    -5.085000000     1.170000000
O    -0.462000000    -2.003000000    -8.959000000
H    -1.337000000    -1.617000000    -8.926000000
H    -0.447000000    -2.625000000    -8.232000000
O    -0.307000000    -7.486000000    -5.807000000
H    -0.354000000    -8.332000000    -6.252000000
H     0.631000000    -7.322000000    -5.703000000
O    -2.203000000    -6.170000000    -1.770000000
H    -2.364000000    -5.832000000    -2.651000000
H    -2.813000000    -5.686000000    -1.213000000
O    -4.665000000    -3.512000000    -6.242000000
H    -5.582000000    -3.240000000    -6.281000000
H    -4.555000000    -4.092000000    -6.995000000
O     0.468000000    -5.567000000    -1.866000000
H     0.767000000    -4.917000000    -2.502000000
H    -0.441000000    -5.743000000    -2.112000000
O     2.562000000    -7.281000000    -2.060000000
H     1.823000000    -6.719000000    -1.824000000
H     3.178000000    -6.694000000    -2.497000000
O    -0.448000000    -5.089000000    -7.783000000
H    -0.743000000    -5.988000000    -7.640000000
H    -0.967000000    -4.567000000    -7.171000000
O     6.247000000    -5.828000000    -3.117000000
H     5.319000000    -5.800000000    -3.351000000
H     6.308000000    -6.527000000    -2.466000000
O     0.717000000    -9.439000000    -2.103000000
H     1.184000000    -9.925000000    -2.782000000
H     1.166000000    -8.595000000    -2.061000000
O    -2.884000000    -4.405000000    -4.142000000
H    -3.516000000    -4.154000000    -4.816000000
H    -2.399000000    -3.601000000    -3.958000000
O     2.611000000    -0.992000000    -8.536000000
H     2.736000000    -0.088000000    -8.245000000
H     1.894000000    -1.321000000    -7.995000000
O     3.520000000    -5.102000000    -3.668000000
H     3.233000000    -4.213000000    -3.460000000
H     3.145000000    -5.279000000    -4.531000000
O    -1.649000000    -2.994000000    -6.499000000
H    -1.276000000    -2.655000000    -5.685000000
H    -2.595000000    -2.977000000    -6.354000000
O     2.492000000    -7.104000000    -5.742000000
H     2.354000000    -7.378000000    -6.649000000
H     3.339000000    -7.482000000    -5.505000000
O    -2.930000000    -6.992000000    -5.432000000
H    -3.061000000    -6.326000000    -4.757000000
H    -2.008000000    -7.236000000    -5.351000000
O     1.997000000    -4.316000000    -5.713000000
H     1.462000000    -3.842000000    -5.077000000
H     1.492000000    -5.105000000    -5.911000000
O     3.526000000    -4.241000000    -7.870000000
H     3.773000000    -3.317000000    -7.870000000
H     2.938000000    -4.332000000    -7.119000000
O    -1.814000000    -8.676000000    -1.613000000
H    -0.938000000    -8.948000000    -1.885000000
H    -1.864000000    -7.751000000    -1.854000000
