215
-1471.92760
C    -4.761000000    -2.510000000     1.165000000
H    -5.519000000    -1.761000000     0.952000000
C    -3.748000000    -2.202000000     2.054000000
C    -2.780000000    -3.183000000     2.339000000
H    -2.040000000    -3.021000000     3.119000000
C    -3.576000000    -0.753000000     2.615000000
O    -4.747000000     0.127000000     2.593000000
H    -2.791000000    -0.350000000     1.958000000
O    -3.025000000    -0.757000000     3.983000000
C    -1.886000000    -0.034000000     4.173000000
C    -0.728000000    -0.734000000     4.354000000
H    -0.716000000    -1.817000000     4.443000000
C     0.449000000    -0.026000000     4.511000000
O     1.633000000    -0.764000000     4.583000000
C     0.427000000     1.378000000     4.436000000
C     1.645000000     2.184000000     4.802000000
H     1.353000000     3.169000000     5.171000000
C     2.458000000     2.374000000     3.549000000
C     2.178000000     3.500000000     2.865000000
H     1.442000000     4.206000000     3.243000000
H     2.267000000     1.718000000     5.569000000
C    -0.755000000     2.046000000     4.295000000
H    -0.721000000     3.132000000     4.257000000
C    -1.992000000     1.363000000     4.200000000
C    -3.334000000     1.996000000     4.136000000
H    -3.407000000     2.916000000     4.721000000
H    -4.046000000     1.342000000     4.644000000
C    -3.586000000     2.189000000     2.634000000
C    -3.097000000     3.319000000     1.978000000
H    -2.525000000     4.151000000     2.382000000
C    -4.422000000     1.353000000     1.962000000
C    -4.589000000     1.441000000     0.550000000
H    -5.142000000     0.765000000    -0.097000000
C    -4.003000000     2.520000000    -0.105000000
O    -4.067000000     2.438000000    -1.535000000
C    -2.768000000     2.395000000    -2.200000000
C    -2.966000000     1.530000000    -3.447000000
C    -2.035000000     1.465000000    -4.439000000
H    -1.149000000     2.095000000    -4.437000000
C    -3.944000000     0.542000000    -3.402000000
H    -4.598000000     0.425000000    -2.541000000
O    -2.082000000     3.641000000    -2.562000000
H    -2.109000000     1.767000000    -1.582000000
C    -3.272000000     3.462000000     0.580000000
C    -2.738000000     4.745000000    -0.005000000
H    -2.693000000     5.527000000     0.756000000
H    -3.446000000     5.071000000    -0.769000000
C    -1.339000000     4.580000000    -0.548000000
C    -0.190000000     4.878000000     0.302000000
H    -0.341000000     5.218000000     1.324000000
C    -1.043000000     4.026000000    -1.773000000
C     0.215000000     3.692000000    -2.114000000
H     0.330000000     3.041000000    -2.977000000
C     1.327000000     3.980000000    -1.338000000
O     2.605000000     3.666000000    -1.788000000
C     3.219000000     2.501000000    -1.305000000
C     3.849000000     1.747000000    -2.432000000
C     3.302000000     1.764000000    -3.721000000
H     2.352000000     2.275000000    -3.857000000
C     5.004000000     0.995000000    -2.217000000
H     5.416000000     0.990000000    -1.211000000
O     4.145000000     2.933000000    -0.314000000
H     2.454000000     1.867000000    -0.831000000
C     1.167000000     4.624000000    -0.078000000
C     2.301000000     5.012000000     0.781000000
H     2.082000000     5.804000000     1.500000000
H     3.131000000     5.394000000     0.183000000
C     2.731000000     3.767000000     1.592000000
C     3.629000000     2.777000000     0.990000000
C     3.923000000     1.592000000     1.729000000
H     4.578000000     0.857000000     1.269000000
C     3.344000000     1.453000000     2.967000000
O     3.537000000     0.192000000     3.628000000
C     2.464000000    -0.743000000     3.407000000
H     1.782000000    -0.523000000     2.572000000
C     3.095000000    -2.113000000     3.174000000
C     2.577000000    -3.246000000     3.775000000
H     1.690000000    -3.229000000     4.404000000
C     4.118000000    -2.276000000     2.192000000
H     4.518000000    -1.450000000     1.610000000
C     4.537000000    -3.579000000     1.860000000
O     5.481000000    -3.772000000     0.860000000
C     4.019000000    -4.667000000     2.449000000
H     4.319000000    -5.652000000     2.099000000
C     3.021000000    -4.515000000     3.395000000
O     2.342000000    -5.679000000     3.745000000
C     0.992000000    -5.682000000     3.886000000
C     0.171000000    -5.330000000     2.854000000
H     0.512000000    -4.995000000     1.878000000
C     0.467000000    -5.987000000     5.143000000
H     1.047000000    -6.155000000     6.047000000
C    -0.890000000    -6.131000000     5.294000000
H    -1.362000000    -6.474000000     6.212000000
C    -1.742000000    -5.936000000     4.218000000
H    -2.800000000    -6.173000000     4.291000000
C    -1.204000000    -5.533000000     2.993000000
O    -1.936000000    -5.428000000     1.863000000
C    -2.855000000    -4.448000000     1.725000000
C    -3.884000000    -4.724000000     0.820000000
H    -3.919000000    -5.687000000     0.316000000
C    -4.820000000    -3.761000000     0.519000000
O    -5.732000000    -3.995000000    -0.491000000
C    -6.136000000    -3.065000000    -1.372000000
C    -5.298000000    -2.647000000    -2.327000000
H    -4.294000000    -3.061000000    -2.380000000
C    -7.366000000    -2.549000000    -1.273000000
H    -7.990000000    -2.733000000    -0.402000000
C    -7.866000000    -1.700000000    -2.206000000
H    -8.867000000    -1.276000000    -2.171000000
C    -7.011000000    -1.318000000    -3.239000000
H    -7.437000000    -0.802000000    -4.096000000
C    -5.718000000    -1.746000000    -3.309000000
O    -4.952000000    -1.429000000    -4.407000000
C    -3.964000000    -0.439000000    -4.381000000
C    -3.135000000    -0.395000000    -5.517000000
H    -3.197000000    -1.236000000    -6.203000000
C    -2.150000000     0.601000000    -5.581000000
O    -1.186000000     0.388000000    -6.545000000
C    -0.062000000     1.234000000    -6.757000000
C     1.161000000     0.949000000    -6.190000000
H     1.336000000     0.113000000    -5.518000000
C    -0.230000000     2.252000000    -7.643000000
H    -1.239000000     2.531000000    -7.934000000
C     0.865000000     3.114000000    -7.880000000
H     0.721000000     4.021000000    -8.461000000
C     2.196000000     2.779000000    -7.385000000
H     3.039000000     3.386000000    -7.702000000
C     2.338000000     1.639000000    -6.565000000
O     3.575000000     1.214000000    -6.058000000
C     3.949000000     1.016000000    -4.715000000
C     5.063000000     0.274000000    -4.473000000
H     5.543000000    -0.299000000    -5.262000000
C     5.452000000     0.103000000    -3.150000000
O     6.404000000    -0.801000000    -2.818000000
C     6.666000000    -1.277000000    -1.569000000
C     7.602000000    -0.620000000    -0.775000000
H     8.054000000     0.203000000    -1.321000000
C     7.950000000    -1.184000000     0.471000000
H     8.684000000    -0.669000000     1.086000000
C     7.157000000    -2.189000000     1.015000000
H     7.281000000    -2.564000000     2.027000000
C     6.196000000    -2.809000000     0.284000000
C     5.901000000    -2.307000000    -1.008000000
H     5.113000000    -2.787000000    -1.582000000
C    -1.415000000    -1.666000000    -0.968000000
H    -2.176000000    -2.335000000    -1.360000000
C    -1.746000000    -0.430000000    -0.432000000
H    -2.771000000    -0.079000000    -0.511000000
C    -0.750000000     0.438000000     0.071000000
H    -1.022000000     1.368000000     0.488000000
C     0.589000000    -0.020000000     0.157000000
H     1.328000000     0.685000000     0.531000000
C     0.931000000    -1.259000000    -0.408000000
H     1.959000000    -1.547000000    -0.612000000
C    -0.077000000    -2.052000000    -0.978000000
C     0.314000000    -3.420000000    -1.617000000
O     1.413000000    -3.935000000    -1.457000000
O    -0.398000000    -3.952000000    -2.506000000
O    -0.056000000    -8.792000000     2.386000000
H     0.757000000    -8.289000000     2.348000000
H    -0.482000000    -8.623000000     1.546000000
O     5.603000000    -5.341000000    -2.696000000
H     4.722000000    -5.013000000    -2.876000000
H     6.179000000    -4.606000000    -2.903000000
O     2.166000000    -7.266000000    -5.936000000
H     1.786000000    -6.592000000    -5.372000000
H     1.840000000    -8.091000000    -5.577000000
O    -0.432000000    -6.457000000    -0.488000000
H    -1.294000000    -6.813000000    -0.702000000
H    -0.422000000    -5.592000000    -0.897000000
O     2.736000000    -8.101000000     1.327000000
H     2.852000000    -7.473000000     0.614000000
H     2.847000000    -8.957000000     0.913000000
O    -1.817000000    -3.884000000    -6.456000000
H    -2.015000000    -4.626000000    -7.026000000
H    -1.495000000    -3.205000000    -7.049000000
O     4.485000000    -8.235000000    -1.536000000
H     3.881000000    -7.523000000    -1.327000000
H     5.182000000    -7.817000000    -2.041000000
O    -0.594000000   -10.005000000    -0.948000000
H    -1.301000000    -9.494000000    -0.553000000
H    -0.519000000    -9.662000000    -1.838000000
O     0.779000000    -6.048000000    -3.604000000
H     0.270000000    -5.355000000    -3.183000000
H     1.209000000    -6.503000000    -2.880000000
O     2.349000000    -6.415000000    -0.521000000
H     2.361000000    -5.485000000    -0.748000000
H     1.427000000    -6.607000000    -0.349000000
O    -0.921000000    -8.444000000    -3.701000000
H    -1.685000000    -8.314000000    -4.262000000
H    -0.820000000    -7.613000000    -3.237000000
O    -2.538000000    -8.417000000     0.619000000
H    -2.597000000    -7.721000000     1.274000000
H    -3.386000000    -8.858000000     0.661000000
O    -3.333000000    -7.194000000    -2.308000000
H    -4.277000000    -7.243000000    -2.159000000
H    -3.197000000    -6.332000000    -2.703000000
O    -2.809000000    -4.544000000    -3.454000000
H    -2.706000000    -4.228000000    -4.351000000
H    -2.013000000    -4.259000000    -3.006000000
O     3.397000000    -3.680000000    -3.147000000
H     2.831000000    -3.730000000    -2.377000000
H     2.805000000    -3.807000000    -3.888000000
O     0.703000000    -3.370000000    -4.999000000
H    -0.043000000    -3.649000000    -5.529000000
H     0.352000000    -3.295000000    -4.112000000
O     7.188000000    -3.101000000    -4.036000000
H     7.976000000    -2.564000000    -3.950000000
H     6.511000000    -2.606000000    -3.575000000
O    -5.364000000    -5.083000000    -4.384000000
H    -4.807000000    -4.513000000    -3.853000000
H    -4.775000000    -5.444000000    -5.046000000
O     2.404000000    -4.232000000    -7.003000000
H     1.787000000    -3.934000000    -6.334000000
H     2.327000000    -5.187000000    -6.991000000
