215
-1459.60956
C    -3.267000000    -3.605000000     2.114000000
H    -3.894000000    -2.817000000     1.702000000
C    -2.348000000    -3.246000000     3.125000000
C    -1.544000000    -4.213000000     3.668000000
H    -0.746000000    -3.987000000     4.371000000
C    -2.110000000    -1.780000000     3.442000000
O    -3.419000000    -1.098000000     3.541000000
H    -1.524000000    -1.234000000     2.687000000
O    -1.316000000    -1.581000000     4.640000000
C    -0.414000000    -0.585000000     4.660000000
C     0.910000000    -1.018000000     4.535000000
H     1.160000000    -2.061000000     4.359000000
C     1.854000000    -0.076000000     4.277000000
O     3.114000000    -0.476000000     3.873000000
C     1.624000000     1.244000000     4.495000000
C     2.679000000     2.329000000     4.296000000
H     2.608000000     3.107000000     5.058000000
C     2.842000000     2.900000000     2.918000000
C     2.154000000     4.031000000     2.369000000
H     1.510000000     4.686000000     2.951000000
H     3.617000000     1.924000000     4.683000000
C     0.313000000     1.644000000     4.829000000
H     0.063000000     2.700000000     4.891000000
C    -0.788000000     0.749000000     4.882000000
C    -2.218000000     1.178000000     5.030000000
H    -2.365000000     2.152000000     5.503000000
H    -2.819000000     0.597000000     5.733000000
C    -2.845000000     1.292000000     3.649000000
C    -2.906000000     2.576000000     3.071000000
H    -2.545000000     3.435000000     3.632000000
C    -3.529000000     0.227000000     3.072000000
C    -4.061000000     0.409000000     1.799000000
H    -4.607000000    -0.431000000     1.379000000
C    -3.974000000     1.620000000     1.174000000
O    -4.470000000     1.694000000    -0.087000000
C    -3.423000000     1.683000000    -1.111000000
C    -3.869000000     0.869000000    -2.295000000
C    -3.364000000     1.059000000    -3.531000000
H    -2.700000000     1.893000000    -3.746000000
C    -4.736000000    -0.173000000    -2.042000000
H    -5.250000000    -0.194000000    -1.085000000
O    -3.345000000     3.076000000    -1.558000000
H    -2.438000000     1.393000000    -0.716000000
C    -3.429000000     2.742000000     1.860000000
C    -3.501000000     4.140000000     1.216000000
H    -3.593000000     4.942000000     1.951000000
H    -4.344000000     4.155000000     0.521000000
C    -2.307000000     4.418000000     0.201000000
C    -1.101000000     4.969000000     0.672000000
H    -1.014000000     5.311000000     1.700000000
C    -2.294000000     3.803000000    -1.035000000
C    -1.175000000     3.986000000    -1.858000000
H    -1.213000000     3.626000000    -2.883000000
C    -0.029000000     4.585000000    -1.407000000
O     1.088000000     4.412000000    -2.241000000
C     1.939000000     3.266000000    -1.890000000
C     2.405000000     2.633000000    -3.120000000
C     1.656000000     2.771000000    -4.316000000
H     0.690000000     3.266000000    -4.254000000
C     3.606000000     1.928000000    -3.280000000
H     4.248000000     1.872000000    -2.404000000
O     3.013000000     3.788000000    -1.206000000
H     1.386000000     2.529000000    -1.288000000
C     0.063000000     5.046000000    -0.100000000
C     1.374000000     5.492000000     0.460000000
H     1.181000000     6.167000000     1.297000000
H     1.936000000     6.003000000    -0.324000000
C     2.169000000     4.351000000     1.033000000
C     2.948000000     3.574000000     0.169000000
C     3.686000000     2.560000000     0.681000000
H     4.397000000     2.112000000    -0.008000000
C     3.641000000     2.205000000     2.032000000
O     4.298000000     1.060000000     2.357000000
C     3.432000000    -0.039000000     2.566000000
H     2.528000000     0.257000000     2.014000000
C     3.942000000    -1.277000000     1.699000000
C     3.242000000    -2.500000000     1.721000000
H     2.366000000    -2.595000000     2.358000000
C     5.044000000    -1.237000000     0.830000000
H     5.611000000    -0.310000000     0.862000000
C     5.390000000    -2.324000000     0.019000000
O     6.534000000    -2.349000000    -0.802000000
C     4.620000000    -3.471000000     0.095000000
H     5.000000000    -4.365000000    -0.393000000
C     3.477000000    -3.579000000     0.892000000
O     2.723000000    -4.751000000     0.919000000
C     2.322000000    -5.475000000     1.977000000
C     1.020000000    -5.559000000     2.270000000
H     0.276000000    -4.957000000     1.754000000
C     3.290000000    -6.193000000     2.658000000
H     4.334000000    -6.100000000     2.369000000
C     2.944000000    -6.909000000     3.790000000
H     3.667000000    -7.545000000     4.294000000
C     1.568000000    -7.072000000     4.082000000
H     1.354000000    -7.687000000     4.953000000
C     0.634000000    -6.317000000     3.352000000
O    -0.714000000    -6.389000000     3.646000000
C    -1.680000000    -5.529000000     3.186000000
C    -2.508000000    -5.850000000     2.100000000
H    -2.325000000    -6.821000000     1.649000000
C    -3.314000000    -4.880000000     1.582000000
O    -4.238000000    -5.220000000     0.645000000
C    -5.197000000    -4.342000000     0.150000000
C    -4.932000000    -3.673000000    -1.021000000
H    -3.938000000    -3.634000000    -1.459000000
C    -6.447000000    -4.201000000     0.779000000
H    -6.500000000    -4.731000000     1.726000000
C    -7.525000000    -3.493000000     0.303000000
H    -8.477000000    -3.391000000     0.819000000
C    -7.251000000    -2.871000000    -0.926000000
H    -8.053000000    -2.330000000    -1.422000000
C    -5.990000000    -2.854000000    -1.558000000
O    -5.868000000    -2.193000000    -2.800000000
C    -5.055000000    -1.037000000    -3.018000000
C    -4.619000000    -0.880000000    -4.290000000
H    -4.745000000    -1.705000000    -4.987000000
C    -3.668000000     0.162000000    -4.545000000
O    -3.071000000     0.244000000    -5.767000000
C    -2.318000000     1.357000000    -6.117000000
C    -0.944000000     1.256000000    -6.103000000
H    -0.417000000     0.324000000    -5.911000000
C    -3.020000000     2.458000000    -6.685000000
H    -4.080000000     2.442000000    -6.924000000
C    -2.243000000     3.456000000    -7.281000000
H    -2.817000000     4.203000000    -7.824000000
C    -0.794000000     3.449000000    -7.055000000
H    -0.172000000     4.276000000    -7.391000000
C    -0.162000000     2.328000000    -6.468000000
O     1.212000000     2.186000000    -6.629000000
C     2.017000000     2.108000000    -5.501000000
C     3.157000000     1.322000000    -5.555000000
H     3.343000000     0.751000000    -6.461000000
C     3.953000000     1.160000000    -4.417000000
O     5.077000000     0.356000000    -4.472000000
C     5.879000000     0.239000000    -3.342000000
C     6.908000000     1.152000000    -3.056000000
H     6.946000000     2.111000000    -3.566000000
C     7.808000000     0.816000000    -2.069000000
H     8.518000000     1.584000000    -1.775000000
C     7.773000000    -0.404000000    -1.445000000
H     8.525000000    -0.661000000    -0.703000000
C     6.740000000    -1.263000000    -1.620000000
C     5.685000000    -0.948000000    -2.575000000
H     4.907000000    -1.660000000    -2.839000000
C    -1.398000000    -1.459000000    -1.395000000
H    -2.223000000    -2.080000000    -1.733000000
C    -1.103000000    -1.173000000    -0.075000000
H    -1.765000000    -1.452000000     0.742000000
C     0.073000000    -0.549000000     0.343000000
H     0.196000000    -0.369000000     1.404000000
C     1.025000000    -0.187000000    -0.589000000
H     1.979000000     0.230000000    -0.276000000
C     0.921000000    -0.661000000    -1.875000000
H     1.703000000    -0.538000000    -2.620000000
C    -0.266000000    -1.307000000    -2.286000000
C    -0.455000000    -1.826000000    -3.710000000
O     0.473000000    -1.641000000    -4.533000000
O    -1.445000000    -2.554000000    -3.903000000
O     1.965000000    -3.453000000    -3.325000000
H     1.451000000    -3.746000000    -2.573000000
H     1.536000000    -2.645000000    -3.608000000
O     2.483000000    -4.495000000    -6.780000000
H     2.695000000    -4.840000000    -7.647000000
H     3.214000000    -4.771000000    -6.227000000
O    -4.743000000    -1.547000000    -7.916000000
H    -4.215000000    -1.087000000    -8.569000000
H    -5.067000000    -0.855000000    -7.339000000
O    -4.061000000    -4.171000000    -7.357000000
H    -3.654000000    -4.322000000    -8.210000000
H    -4.220000000    -3.228000000    -7.331000000
O    -0.257000000    -6.811000000    -7.304000000
H    -0.491000000    -6.615000000    -6.397000000
H    -0.404000000    -5.990000000    -7.773000000
O    -3.702000000    -4.104000000    -4.554000000
H    -3.180000000    -3.364000000    -4.244000000
H    -3.409000000    -4.243000000    -5.455000000
O     0.254000000    -0.874000000    -8.470000000
H     1.021000000    -1.022000000    -7.917000000
H    -0.490000000    -1.113000000    -7.916000000
O    -1.413000000    -4.996000000    -2.377000000
H    -1.969000000    -5.579000000    -2.895000000
H    -1.360000000    -4.193000000    -2.895000000
O     4.317000000    -4.631000000    -3.801000000
H     3.441000000    -4.247000000    -3.761000000
H     4.454000000    -5.006000000    -2.932000000
O    -3.660000000    -6.704000000    -3.325000000
H    -3.718000000    -5.820000000    -3.687000000
H    -4.495000000    -6.834000000    -2.875000000
O    -1.630000000    -2.156000000    -6.517000000
H    -2.312000000    -1.485000000    -6.544000000
H    -1.398000000    -2.225000000    -5.591000000
O     0.546000000    -4.010000000    -0.808000000
H    -0.158000000    -4.579000000    -1.120000000
H     0.194000000    -3.605000000    -0.015000000
O     0.056000000    -5.042000000    -5.086000000
H    -0.653000000    -4.400000000    -5.104000000
H     0.719000000    -4.683000000    -5.675000000
O     2.191000000    -6.431000000    -1.692000000
H     1.902000000    -5.608000000    -1.298000000
H     1.644000000    -7.099000000    -1.280000000
O     1.248000000    -7.282000000    -4.315000000
H     0.896000000    -6.465000000    -4.670000000
H     1.482000000    -7.069000000    -3.411000000
O     4.401000000    -1.219000000    -8.735000000
H     5.060000000    -1.876000000    -8.960000000
H     3.902000000    -1.616000000    -8.021000000
O    -1.698000000    -7.399000000    -0.696000000
H    -2.062000000    -6.668000000    -1.197000000
H    -2.449000000    -7.768000000    -0.232000000
O     2.191000000    -1.927000000    -6.540000000
H     2.124000000    -2.879000000    -6.467000000
H     1.640000000    -1.593000000    -5.832000000
O    -0.471000000    -4.339000000    -8.299000000
H    -1.242000000    -4.431000000    -8.858000000
H    -0.667000000    -3.585000000    -7.743000000
