215
-1441.57112
C     2.377000000     2.441000000    -3.594000000
H     1.882000000     1.494000000    -3.793000000
C     3.277000000     2.556000000    -2.510000000
C     3.589000000     3.843000000    -2.071000000
H     4.171000000     4.116000000    -1.195000000
C     3.657000000     1.305000000    -1.689000000
O     3.975000000     0.198000000    -2.561000000
H     2.741000000     1.013000000    -1.155000000
O     4.733000000     1.596000000    -0.776000000
C     4.471000000     1.148000000     0.535000000
C     3.856000000     1.965000000     1.462000000
H     3.561000000     2.990000000     1.250000000
C     3.625000000     1.472000000     2.771000000
O     2.921000000     2.227000000     3.650000000
C     3.934000000     0.164000000     3.094000000
C     3.462000000    -0.426000000     4.372000000
H     4.164000000    -1.157000000     4.780000000
C     2.011000000    -1.021000000     4.245000000
C     1.772000000    -2.412000000     4.050000000
H     2.561000000    -3.156000000     3.978000000
H     3.502000000     0.427000000     5.052000000
C     4.421000000    -0.694000000     2.058000000
H     4.455000000    -1.763000000     2.254000000
C     4.720000000    -0.233000000     0.788000000
C     5.359000000    -1.149000000    -0.179000000
H     5.838000000    -1.906000000     0.445000000
H     6.174000000    -0.726000000    -0.769000000
C     4.316000000    -1.732000000    -1.023000000
C     3.856000000    -3.012000000    -0.719000000
H     4.427000000    -3.528000000     0.049000000
C     3.699000000    -1.102000000    -2.135000000
C     2.759000000    -1.807000000    -2.931000000
H     2.338000000    -1.321000000    -3.808000000
C     2.289000000    -3.001000000    -2.578000000
O     1.217000000    -3.463000000    -3.337000000
C    -0.111000000    -3.356000000    -2.731000000
C    -1.117000000    -2.950000000    -3.795000000
C    -2.347000000    -3.658000000    -3.902000000
H    -2.590000000    -4.522000000    -3.288000000
C    -0.863000000    -1.890000000    -4.646000000
H     0.105000000    -1.397000000    -4.607000000
O    -0.386000000    -4.602000000    -2.050000000
H     0.018000000    -2.537000000    -2.008000000
C     2.808000000    -3.614000000    -1.410000000
C     2.336000000    -4.939000000    -0.962000000
H     3.148000000    -5.422000000    -0.415000000
H     2.248000000    -5.569000000    -1.850000000
C     1.030000000    -4.728000000    -0.130000000
C     1.049000000    -4.924000000     1.260000000
H     2.058000000    -5.056000000     1.644000000
C    -0.210000000    -4.597000000    -0.729000000
C    -1.370000000    -4.382000000     0.067000000
H    -2.386000000    -4.289000000    -0.307000000
C    -1.279000000    -4.407000000     1.455000000
O    -2.301000000    -3.962000000     2.123000000
C    -2.360000000    -2.537000000     2.420000000
C    -3.785000000    -2.014000000     2.226000000
C    -4.512000000    -2.499000000     1.176000000
H    -4.292000000    -3.400000000     0.608000000
C    -4.188000000    -0.834000000     2.903000000
H    -3.513000000    -0.354000000     3.607000000
O    -1.894000000    -2.443000000     3.825000000
H    -1.550000000    -2.017000000     1.889000000
C    -0.030000000    -4.650000000     2.067000000
C     0.227000000    -4.380000000     3.548000000
H     1.092000000    -4.917000000     3.941000000
H    -0.629000000    -4.794000000     4.084000000
C     0.451000000    -2.909000000     3.883000000
C    -0.624000000    -2.019000000     3.977000000
C    -0.440000000    -0.602000000     4.103000000
H    -1.274000000     0.095000000     4.107000000
C     0.850000000    -0.158000000     4.178000000
O     0.921000000     1.157000000     4.391000000
C     1.491000000     2.017000000     3.453000000
H     1.283000000     1.551000000     2.478000000
C     0.682000000     3.316000000     3.440000000
C     1.222000000     4.422000000     2.710000000
H     2.225000000     4.346000000     2.298000000
C    -0.650000000     3.414000000     3.954000000
H    -1.128000000     2.626000000     4.530000000
C    -1.424000000     4.572000000     3.757000000
O    -2.731000000     4.610000000     4.150000000
C    -0.865000000     5.629000000     3.027000000
H    -1.508000000     6.495000000     2.895000000
C     0.437000000     5.605000000     2.531000000
O     0.800000000     6.617000000     1.645000000
C     2.010000000     6.640000000     1.106000000
C     2.128000000     6.226000000    -0.198000000
H     1.274000000     5.736000000    -0.658000000
C     3.085000000     7.295000000     1.741000000
H     2.948000000     7.627000000     2.767000000
C     4.215000000     7.451000000     1.049000000
H     5.016000000     7.984000000     1.556000000
C     4.303000000     7.259000000    -0.325000000
H     5.258000000     7.608000000    -0.710000000
C     3.299000000     6.493000000    -0.965000000
O     3.325000000     6.219000000    -2.365000000
C     3.081000000     4.931000000    -2.808000000
C     2.257000000     4.756000000    -3.901000000
H     1.935000000     5.669000000    -4.396000000
C     1.926000000     3.495000000    -4.342000000
O     0.996000000     3.407000000    -5.407000000
C     0.803000000     2.199000000    -6.044000000
C    -0.452000000     1.540000000    -6.005000000
H    -1.294000000     1.924000000    -5.434000000
C     1.900000000     1.638000000    -6.700000000
H     2.871000000     2.125000000    -6.668000000
C     1.781000000     0.386000000    -7.273000000
H     2.592000000    -0.114000000    -7.796000000
C     0.537000000    -0.173000000    -7.351000000
H     0.463000000    -1.178000000    -7.759000000
C    -0.542000000     0.341000000    -6.644000000
O    -1.686000000    -0.433000000    -6.448000000
C    -1.856000000    -1.455000000    -5.527000000
C    -3.075000000    -2.023000000    -5.449000000
H    -3.869000000    -1.388000000    -5.834000000
C    -3.351000000    -3.171000000    -4.688000000
O    -4.638000000    -3.581000000    -4.545000000
C    -5.163000000    -3.830000000    -3.314000000
C    -5.472000000    -2.873000000    -2.351000000
H    -5.253000000    -1.865000000    -2.694000000
C    -5.592000000    -5.087000000    -3.097000000
H    -5.357000000    -5.904000000    -3.775000000
C    -6.261000000    -5.502000000    -1.898000000
H    -6.612000000    -6.521000000    -1.754000000
C    -6.582000000    -4.561000000    -0.940000000
H    -6.968000000    -4.928000000     0.008000000
C    -6.151000000    -3.260000000    -1.190000000
O    -6.441000000    -2.230000000    -0.302000000
C    -5.710000000    -1.821000000     0.738000000
C    -6.056000000    -0.615000000     1.302000000
H    -6.713000000     0.100000000     0.814000000
C    -5.268000000    -0.110000000     2.365000000
O    -5.743000000     0.925000000     3.045000000
C    -5.019000000     1.622000000     3.984000000
C    -4.967000000     1.198000000     5.331000000
H    -5.563000000     0.330000000     5.603000000
C    -4.106000000     1.815000000     6.249000000
H    -4.048000000     1.493000000     7.286000000
C    -3.406000000     2.951000000     5.817000000
H    -2.818000000     3.429000000     6.596000000
C    -3.482000000     3.456000000     4.483000000
C    -4.288000000     2.756000000     3.619000000
H    -4.450000000     3.101000000     2.601000000
C    -3.370000000     0.164000000    -0.758000000
H    -4.162000000    -0.213000000    -1.400000000
C    -2.160000000    -0.520000000    -0.631000000
H    -1.939000000    -1.408000000    -1.217000000
C    -1.092000000     0.064000000     0.050000000
H    -0.142000000    -0.551000000    -0.016000000
C    -1.141000000     1.379000000     0.544000000
H    -0.188000000     1.781000000     0.878000000
C    -2.315000000     2.102000000     0.468000000
H    -2.281000000     3.109000000     0.877000000
C    -3.475000000     1.482000000    -0.196000000
C    -4.762000000     2.228000000    -0.268000000
O    -4.709000000     3.382000000    -0.119000000
O    -5.816000000     1.717000000    -0.637000000
O    -7.363000000     2.210000000    -5.771000000
H    -7.123000000     1.309000000    -5.987000000
H    -7.065000000     2.327000000    -4.869000000
O    -2.138000000     4.150000000    -2.485000000
H    -1.355000000     3.629000000    -2.663000000
H    -2.668000000     4.064000000    -3.277000000
O    -6.534000000    -0.369000000    -4.675000000
H    -5.688000000     0.056000000    -4.531000000
H    -6.892000000    -0.494000000    -3.797000000
O    -6.357000000     2.673000000    -3.286000000
H    -6.211000000     2.220000000    -2.455000000
H    -6.233000000     3.599000000    -3.080000000
O    -7.406000000     4.516000000     5.018000000
H    -8.246000000     4.516000000     5.477000000
H    -7.607000000     4.163000000     4.151000000
O    -5.924000000     6.849000000    -4.034000000
H    -5.896000000     7.730000000    -4.407000000
H    -5.503000000     6.938000000    -3.179000000
O    -4.835000000     7.382000000    -1.605000000
H    -4.078000000     6.841000000    -1.380000000
H    -4.740000000     8.164000000    -1.060000000
O    -8.597000000     3.692000000    -1.361000000
H    -8.859000000     3.633000000    -2.279000000
H    -7.830000000     4.264000000    -1.367000000
O    -3.235000000     5.418000000    -0.527000000
H    -3.848000000     4.781000000    -0.160000000
H    -2.902000000     5.000000000    -1.321000000
O    -7.321000000     3.369000000     1.207000000
H    -7.740000000     3.193000000     0.365000000
H    -6.388000000     3.228000000     1.045000000
O    -6.168000000     5.025000000    -1.494000000
H    -5.625000000     4.349000000    -1.089000000
H    -5.772000000     5.850000000    -1.215000000
O    -8.751000000     2.509000000     3.291000000
H    -8.158000000     1.928000000     3.768000000
H    -8.234000000     2.821000000     2.548000000
O    -7.067000000    -0.019000000    -2.036000000
H    -6.588000000     0.653000000    -1.551000000
H    -7.394000000    -0.614000000    -1.361000000
O   -10.711000000     2.292000000    -0.075000000
H   -10.014000000     2.738000000    -0.556000000
H   -10.328000000     1.451000000     0.176000000
O    -5.333000000     6.112000000     3.747000000
H    -4.390000000     6.136000000     3.588000000
H    -5.429000000     5.580000000     4.536000000
O    -9.922000000     0.225000000    -2.244000000
H    -9.199000000     0.769000000    -2.557000000
H   -10.709000000     0.726000000    -2.461000000
O    -7.773000000     5.990000000     2.589000000
H    -7.570000000     5.195000000     2.096000000
H    -6.926000000     6.286000000     2.924000000
O    -2.846000000     7.603000000     1.284000000
H    -2.998000000     6.690000000     1.039000000
H    -3.635000000     7.857000000     1.762000000
O    -4.334000000     1.700000000    -4.949000000
H    -5.087000000     2.082000000    -4.497000000
H    -3.754000000     2.443000000    -5.117000000
