215
-1468.84826
C    -2.950000000    -2.627000000     1.934000000
H    -3.420000000    -1.758000000     1.481000000
C    -2.232000000    -2.456000000     3.098000000
C    -1.567000000    -3.559000000     3.634000000
H    -0.898000000    -3.368000000     4.470000000
C    -1.947000000    -0.999000000     3.567000000
O    -3.176000000    -0.190000000     3.581000000
H    -1.413000000    -0.534000000     2.725000000
O    -1.291000000    -0.864000000     4.761000000
C    -0.133000000    -0.118000000     4.806000000
C     1.113000000    -0.681000000     4.588000000
H     1.238000000    -1.755000000     4.480000000
C     2.193000000     0.152000000     4.393000000
O     3.374000000    -0.511000000     4.095000000
C     2.037000000     1.515000000     4.305000000
C     3.148000000     2.373000000     3.857000000
H     2.975000000     3.373000000     4.260000000
C     3.318000000     2.476000000     2.332000000
C     2.735000000     3.557000000     1.692000000
H     2.301000000     4.391000000     2.237000000
H     4.114000000     2.020000000     4.223000000
C     0.843000000     2.081000000     4.625000000
H     0.744000000     3.157000000     4.513000000
C    -0.277000000     1.272000000     4.733000000
C    -1.582000000     2.099000000     4.924000000
H    -1.401000000     3.084000000     5.359000000
H    -2.301000000     1.594000000     5.573000000
C    -2.342000000     2.160000000     3.616000000
C    -2.250000000     3.356000000     2.840000000
H    -1.577000000     4.093000000     3.271000000
C    -3.131000000     1.127000000     3.052000000
C    -3.785000000     1.344000000     1.809000000
H    -4.361000000     0.538000000     1.361000000
C    -3.580000000     2.500000000     1.112000000
O    -4.162000000     2.523000000    -0.165000000
C    -3.389000000     2.472000000    -1.410000000
C    -4.093000000     1.637000000    -2.427000000
C    -3.618000000     1.656000000    -3.756000000
H    -2.927000000     2.374000000    -4.189000000
C    -5.071000000     0.741000000    -1.993000000
H    -5.356000000     0.675000000    -0.946000000
O    -3.053000000     3.769000000    -1.853000000
H    -2.459000000     2.007000000    -1.049000000
C    -2.752000000     3.539000000     1.593000000
C    -2.564000000     4.818000000     0.883000000
H    -2.214000000     5.504000000     1.656000000
H    -3.529000000     5.117000000     0.468000000
C    -1.496000000     4.750000000    -0.224000000
C    -0.190000000     5.157000000     0.119000000
H     0.055000000     5.590000000     1.086000000
C    -1.744000000     4.179000000    -1.473000000
C    -0.716000000     3.925000000    -2.343000000
H    -0.851000000     3.520000000    -3.342000000
C     0.556000000     4.305000000    -1.985000000
O     1.474000000     3.909000000    -2.856000000
C     1.996000000     2.578000000    -2.570000000
C     2.193000000     1.690000000    -3.788000000
C     1.416000000     1.852000000    -4.947000000
H     0.684000000     2.654000000    -4.997000000
C     3.027000000     0.634000000    -3.674000000
H     3.511000000     0.443000000    -2.720000000
O     3.258000000     2.758000000    -1.831000000
H     1.325000000     2.026000000    -1.895000000
C     0.880000000     4.848000000    -0.729000000
C     2.338000000     4.951000000    -0.330000000
H     2.450000000     5.779000000     0.373000000
H     2.942000000     5.310000000    -1.167000000
C     2.849000000     3.730000000     0.316000000
C     3.307000000     2.705000000    -0.476000000
C     3.938000000     1.624000000     0.110000000
H     4.467000000     0.968000000    -0.577000000
C     4.008000000     1.533000000     1.520000000
O     4.545000000     0.369000000     2.097000000
C     3.543000000    -0.609000000     2.601000000
H     2.576000000    -0.395000000     2.121000000
C     3.927000000    -2.007000000     2.198000000
C     3.697000000    -3.118000000     3.046000000
H     3.294000000    -2.899000000     4.031000000
C     4.455000000    -2.318000000     0.920000000
H     4.570000000    -1.514000000     0.198000000
C     4.819000000    -3.580000000     0.492000000
O     5.358000000    -3.792000000    -0.744000000
C     4.518000000    -4.665000000     1.345000000
H     4.618000000    -5.696000000     1.015000000
C     3.947000000    -4.437000000     2.578000000
O     3.798000000    -5.501000000     3.449000000
C     2.597000000    -5.591000000     4.062000000
C     1.443000000    -5.788000000     3.340000000
H     1.552000000    -5.652000000     2.267000000
C     2.560000000    -5.765000000     5.529000000
H     3.525000000    -5.660000000     6.018000000
C     1.347000000    -5.961000000     6.189000000
H     1.300000000    -6.208000000     7.247000000
C     0.161000000    -5.991000000     5.453000000
H    -0.761000000    -6.243000000     5.970000000
C     0.270000000    -5.949000000     4.058000000
O    -0.934000000    -5.955000000     3.351000000
C    -1.658000000    -4.837000000     2.974000000
C    -2.525000000    -5.011000000     1.951000000
H    -2.650000000    -5.985000000     1.484000000
C    -3.267000000    -3.963000000     1.437000000
O    -4.091000000    -4.078000000     0.353000000
C    -5.105000000    -3.211000000     0.119000000
C    -5.163000000    -2.415000000    -1.053000000
H    -4.343000000    -2.387000000    -1.766000000
C    -6.178000000    -3.225000000     1.030000000
H    -6.176000000    -3.909000000     1.875000000
C    -7.328000000    -2.479000000     0.818000000
H    -8.087000000    -2.323000000     1.580000000
C    -7.439000000    -1.759000000    -0.330000000
H    -8.291000000    -1.098000000    -0.465000000
C    -6.399000000    -1.718000000    -1.302000000
O    -6.570000000    -0.988000000    -2.490000000
C    -5.570000000    -0.162000000    -2.916000000
C    -5.092000000    -0.176000000    -4.261000000
H    -5.491000000    -0.954000000    -4.906000000
C    -4.068000000     0.620000000    -4.627000000
O    -3.681000000     0.486000000    -5.942000000
C    -2.725000000     1.259000000    -6.483000000
C    -1.383000000     0.874000000    -6.376000000
H    -1.140000000    -0.049000000    -5.856000000
C    -3.094000000     2.464000000    -7.041000000
H    -4.165000000     2.634000000    -7.122000000
C    -2.106000000     3.214000000    -7.767000000
H    -2.381000000     3.960000000    -8.509000000
C    -0.801000000     2.750000000    -7.793000000
H    -0.093000000     3.250000000    -8.450000000
C    -0.437000000     1.587000000    -7.083000000
O     0.860000000     1.181000000    -7.208000000
C     1.605000000     1.011000000    -6.080000000
C     2.541000000     0.003000000    -5.949000000
H     2.621000000    -0.736000000    -6.742000000
C     3.208000000    -0.275000000    -4.746000000
O     4.190000000    -1.269000000    -4.662000000
C     5.110000000    -1.518000000    -3.612000000
C     6.149000000    -0.575000000    -3.421000000
H     6.258000000     0.255000000    -4.115000000
C     6.839000000    -0.653000000    -2.190000000
H     7.621000000     0.084000000    -2.028000000
C     6.677000000    -1.692000000    -1.278000000
H     7.360000000    -1.827000000    -0.443000000
C     5.755000000    -2.732000000    -1.575000000
C     4.913000000    -2.538000000    -2.719000000
H     4.084000000    -3.223000000    -2.879000000
C    -1.253000000    -1.131000000    -1.742000000
H    -2.087000000    -1.466000000    -2.352000000
C    -1.522000000    -0.370000000    -0.608000000
H    -2.534000000    -0.055000000    -0.367000000
C    -0.458000000     0.135000000     0.186000000
H    -0.671000000     0.714000000     1.119000000
C     0.891000000    -0.130000000    -0.217000000
H     1.751000000     0.230000000     0.341000000
C     1.069000000    -0.980000000    -1.340000000
H     2.071000000    -1.328000000    -1.580000000
C     0.049000000    -1.485000000    -2.105000000
C     0.297000000    -2.511000000    -3.222000000
O     1.419000000    -2.890000000    -3.539000000
O    -0.624000000    -2.653000000    -4.037000000
O     2.114000000    -5.117000000    -2.191000000
H     1.485000000    -4.953000000    -1.488000000
H     2.040000000    -4.352000000    -2.761000000
O    -0.002000000    -1.619000000    -9.468000000
H    -0.023000000    -2.288000000   -10.152000000
H     0.346000000    -2.072000000    -8.700000000
O    -0.797000000    -7.821000000    -6.374000000
H    -0.856000000    -6.958000000    -5.965000000
H    -1.661000000    -7.962000000    -6.761000000
O    -3.322000000    -1.682000000    -8.525000000
H    -2.368000000    -1.728000000    -8.587000000
H    -3.629000000    -2.478000000    -8.960000000
O    -4.881000000    -5.338000000    -6.081000000
H    -4.080000000    -4.816000000    -6.123000000
H    -5.538000000    -4.740000000    -5.723000000
O     0.259000000    -2.547000000    -6.628000000
H     1.211000000    -2.560000000    -6.732000000
H     0.120000000    -2.616000000    -5.684000000
O    -2.220000000    -5.700000000    -1.072000000
H    -2.742000000    -5.024000000    -0.640000000
H    -2.785000000    -6.029000000    -1.771000000
O     5.896000000    -5.940000000    -2.846000000
H     5.331000000    -5.282000000    -2.442000000
H     5.787000000    -6.718000000    -2.299000000
O    -2.976000000    -3.217000000    -5.644000000
H    -3.018000000    -2.394000000    -6.130000000
H    -2.053000000    -3.311000000    -5.410000000
O     0.093000000    -3.973000000    -0.434000000
H    -0.637000000    -4.565000000    -0.250000000
H    -0.226000000    -3.110000000    -0.169000000
O    -0.223000000    -5.318000000    -5.197000000
H    -0.650000000    -4.821000000    -4.499000000
H     0.712000000    -5.154000000    -5.070000000
O     1.511000000    -8.288000000    -4.529000000
H     1.587000000    -7.640000000    -3.828000000
H     0.608000000    -8.207000000    -4.833000000
O     3.200000000    -7.401000000    -0.864000000
H     2.509000000    -6.797000000    -1.137000000
H     2.732000000    -8.183000000    -0.571000000
O     2.770000000    -5.805000000    -4.746000000
H     2.910000000    -5.038000000    -5.301000000
H     3.027000000    -5.518000000    -3.870000000
O     2.997000000    -3.835000000    -8.451000000
H     2.310000000    -4.497000000    -8.366000000
H     3.324000000    -3.714000000    -7.560000000
O    -0.259000000    -7.420000000    -0.674000000
H    -0.457000000    -7.975000000    -1.428000000
H    -0.944000000    -6.751000000    -0.683000000
O     2.970000000    -3.401000000    -5.705000000
H     3.628000000    -2.718000000    -5.575000000
H     2.333000000    -3.257000000    -5.005000000
O     0.909000000    -6.150000000    -8.309000000
H     1.437000000    -6.868000000    -8.658000000
H     0.846000000    -6.332000000    -7.372000000
O    -1.737000000    -4.965000000    -8.179000000
H    -0.902000000    -5.296000000    -8.508000000
H    -1.565000000    -4.748000000    -7.263000000
