215
-1432.78237
C    -3.670000000    -2.608000000     1.920000000
H    -4.324000000    -1.822000000     1.551000000
C    -2.622000000    -2.358000000     2.830000000
C    -1.825000000    -3.477000000     3.299000000
H    -1.022000000    -3.244000000     3.993000000
C    -2.309000000    -0.881000000     3.249000000
O    -3.498000000    -0.068000000     3.404000000
H    -1.749000000    -0.545000000     2.364000000
O    -1.632000000    -0.780000000     4.513000000
C    -0.570000000     0.106000000     4.569000000
C     0.695000000    -0.429000000     4.466000000
H     0.858000000    -1.502000000     4.405000000
C     1.802000000     0.429000000     4.306000000
O     2.999000000    -0.214000000     3.950000000
C     1.570000000     1.804000000     4.155000000
C     2.724000000     2.757000000     3.806000000
H     2.426000000     3.745000000     4.165000000
C     2.971000000     2.802000000     2.290000000
C     2.447000000     3.912000000     1.615000000
H     1.733000000     4.502000000     2.185000000
H     3.648000000     2.595000000     4.365000000
C     0.327000000     2.328000000     4.407000000
H     0.103000000     3.389000000     4.327000000
C    -0.780000000     1.489000000     4.606000000
C    -2.088000000     2.073000000     4.758000000
H    -2.069000000     3.037000000     5.270000000
H    -2.646000000     1.388000000     5.401000000
C    -2.691000000     2.206000000     3.377000000
C    -2.631000000     3.349000000     2.685000000
H    -2.097000000     4.182000000     3.133000000
C    -3.491000000     1.213000000     2.854000000
C    -4.164000000     1.348000000     1.601000000
H    -4.807000000     0.553000000     1.231000000
C    -3.983000000     2.524000000     0.901000000
O    -4.434000000     2.678000000    -0.337000000
C    -3.530000000     2.234000000    -1.345000000
C    -4.231000000     1.398000000    -2.362000000
C    -3.639000000     1.093000000    -3.600000000
H    -2.593000000     1.325000000    -3.785000000
C    -5.430000000     0.705000000    -2.066000000
H    -5.950000000     0.916000000    -1.135000000
O    -3.068000000     3.361000000    -2.028000000
H    -2.634000000     1.761000000    -0.916000000
C    -3.165000000     3.536000000     1.457000000
C    -2.910000000     4.815000000     0.640000000
H    -2.517000000     5.597000000     1.294000000
H    -3.881000000     5.152000000     0.269000000
C    -1.795000000     4.649000000    -0.425000000
C    -0.500000000     5.087000000    -0.076000000
H    -0.217000000     5.517000000     0.882000000
C    -1.886000000     3.853000000    -1.595000000
C    -0.844000000     3.668000000    -2.481000000
H    -0.997000000     3.128000000    -3.412000000
C     0.405000000     4.193000000    -2.135000000
O     1.470000000     3.746000000    -2.938000000
C     2.342000000     2.751000000    -2.406000000
C     2.706000000     1.724000000    -3.437000000
C     1.718000000     1.089000000    -4.176000000
H     0.703000000     1.472000000    -4.115000000
C     3.953000000     1.196000000    -3.466000000
H     4.677000000     1.682000000    -2.816000000
O     3.494000000     3.280000000    -1.783000000
H     1.823000000     2.262000000    -1.568000000
C     0.564000000     4.846000000    -0.905000000
C     1.942000000     5.313000000    -0.413000000
H     1.825000000     6.167000000     0.257000000
H     2.520000000     5.778000000    -1.215000000
C     2.759000000     4.190000000     0.318000000
C     3.514000000     3.296000000    -0.374000000
C     4.022000000     2.151000000     0.237000000
H     4.603000000     1.434000000    -0.336000000
C     3.839000000     1.969000000     1.601000000
O     4.334000000     0.803000000     2.152000000
C     3.449000000    -0.263000000     2.538000000
H     2.536000000    -0.129000000     1.940000000
C     4.068000000    -1.600000000     2.174000000
C     3.493000000    -2.807000000     2.607000000
H     2.613000000    -2.771000000     3.244000000
C     5.151000000    -1.643000000     1.257000000
H     5.524000000    -0.702000000     0.861000000
C     5.527000000    -2.893000000     0.748000000
O     6.523000000    -2.919000000    -0.204000000
C     4.964000000    -4.057000000     1.208000000
H     5.135000000    -5.021000000     0.737000000
C     3.963000000    -4.042000000     2.154000000
O     3.467000000    -5.230000000     2.459000000
C     2.354000000    -5.490000000     3.271000000
C     1.081000000    -5.650000000     2.778000000
H     0.987000000    -5.700000000     1.697000000
C     2.640000000    -5.514000000     4.579000000
H     3.657000000    -5.535000000     4.963000000
C     1.589000000    -5.736000000     5.527000000
H     1.948000000    -5.927000000     6.535000000
C     0.261000000    -5.908000000     5.011000000
H    -0.513000000    -6.022000000     5.766000000
C    -0.002000000    -5.773000000     3.657000000
O    -1.344000000    -5.893000000     3.203000000
C    -2.075000000    -4.736000000     2.777000000
C    -3.082000000    -4.883000000     1.864000000
H    -3.143000000    -5.877000000     1.427000000
C    -3.841000000    -3.868000000     1.375000000
O    -4.671000000    -4.175000000     0.331000000
C    -5.797000000    -3.422000000     0.058000000
C    -5.839000000    -2.734000000    -1.157000000
H    -5.001000000    -2.771000000    -1.849000000
C    -6.779000000    -3.367000000     1.032000000
H    -6.689000000    -3.951000000     1.944000000
C    -7.964000000    -2.673000000     0.737000000
H    -8.762000000    -2.722000000     1.474000000
C    -8.026000000    -1.890000000    -0.428000000
H    -8.906000000    -1.282000000    -0.621000000
C    -6.946000000    -1.833000000    -1.362000000
O    -6.980000000    -1.055000000    -2.511000000
C    -5.949000000    -0.247000000    -2.908000000
C    -5.440000000    -0.324000000    -4.200000000
H    -5.848000000    -1.094000000    -4.849000000
C    -4.254000000     0.255000000    -4.518000000
O    -3.693000000    -0.041000000    -5.795000000
C    -2.465000000     0.315000000    -6.112000000
C    -1.374000000    -0.425000000    -5.735000000
H    -1.461000000    -1.258000000    -5.042000000
C    -2.319000000     1.503000000    -6.805000000
H    -3.223000000     2.050000000    -7.059000000
C    -1.111000000     1.793000000    -7.371000000
H    -1.057000000     2.666000000    -8.016000000
C     0.015000000     1.084000000    -7.037000000
H     0.983000000     1.374000000    -7.439000000
C    -0.051000000    -0.050000000    -6.187000000
O     1.093000000    -0.629000000    -5.691000000
C     1.997000000     0.037000000    -5.028000000
C     3.296000000    -0.527000000    -5.057000000
H     3.548000000    -1.383000000    -5.677000000
C     4.272000000     0.063000000    -4.241000000
O     5.496000000    -0.464000000    -4.272000000
C     6.288000000    -0.704000000    -3.143000000
C     7.585000000    -0.207000000    -3.196000000
H     7.828000000     0.522000000    -3.965000000
C     8.500000000    -0.568000000    -2.286000000
H     9.531000000    -0.237000000    -2.382000000
C     8.173000000    -1.493000000    -1.264000000
H     8.881000000    -1.787000000    -0.493000000
C     6.832000000    -1.911000000    -1.149000000
C     5.880000000    -1.550000000    -2.125000000
H     4.867000000    -1.944000000    -2.123000000
C    -0.433000000    -1.202000000    -1.642000000
H    -0.844000000    -1.031000000    -2.634000000
C    -0.445000000    -0.037000000    -0.883000000
H    -0.784000000     0.867000000    -1.382000000
C    -0.047000000    -0.115000000     0.477000000
H     0.096000000     0.748000000     1.148000000
C     0.494000000    -1.327000000     0.928000000
H     0.824000000    -1.434000000     1.958000000
C     0.485000000    -2.491000000     0.168000000
H     0.875000000    -3.377000000     0.661000000
C    -0.043000000    -2.454000000    -1.138000000
C    -0.158000000    -3.679000000    -2.002000000
O     0.250000000    -4.732000000    -1.563000000
O    -0.467000000    -3.626000000    -3.148000000
O     0.041000000    -6.270000000    -4.625000000
H    -0.012000000    -5.707000000    -5.397000000
H     0.004000000    -5.666000000    -3.884000000
O    -2.232000000    -8.108000000    -6.060000000
H    -1.858000000    -8.987000000    -5.992000000
H    -2.868000000    -8.172000000    -6.772000000
O     2.359000000    -7.760000000     0.036000000
H     1.453000000    -7.578000000    -0.212000000
H     2.849000000    -6.998000000    -0.272000000
O     1.163000000    -3.462000000    -5.330000000
H     1.171000000    -2.505000000    -5.316000000
H     0.562000000    -3.706000000    -4.626000000
O    -0.059000000    -7.540000000    -1.249000000
H    -0.110000000    -6.594000000    -1.386000000
H    -0.744000000    -7.901000000    -1.812000000
O    -0.958000000    -6.365000000    -8.054000000
H    -0.751000000    -6.669000000    -8.937000000
H    -1.615000000    -6.985000000    -7.735000000
O     1.805000000    -3.490000000    -8.060000000
H     1.080000000    -3.526000000    -8.684000000
H     1.394000000    -3.633000000    -7.207000000
O    -4.109000000    -8.870000000    -2.259000000
H    -4.730000000    -9.216000000    -2.900000000
H    -4.659000000    -8.456000000    -1.593000000
O     5.933000000    -5.331000000    -2.143000000
H     6.297000000    -6.126000000    -1.754000000
H     4.989000000    -5.408000000    -2.005000000
O     2.058000000   -10.025000000     1.826000000
H     2.493000000    -9.601000000     2.565000000
H     2.009000000    -9.345000000     1.154000000
O    -2.874000000    -3.460000000    -4.324000000
H    -2.002000000    -3.607000000    -3.959000000
H    -2.917000000    -2.515000000    -4.469000000
O    -1.411000000    -8.847000000    -3.258000000
H    -1.294000000    -8.318000000    -4.047000000
H    -2.360000000    -8.936000000    -3.168000000
O     1.122000000    -8.337000000    -7.145000000
H     1.255000000    -9.133000000    -7.659000000
H     0.238000000    -8.425000000    -6.790000000
O     2.655000000    -7.302000000    -4.366000000
H     3.217000000    -6.929000000    -5.045000000
H     1.764000000    -7.141000000    -4.679000000
O     1.872000000    -9.474000000    -2.712000000
H     1.213000000    -8.836000000    -2.438000000
H     2.417000000    -9.000000000    -3.340000000
O     3.481000000    -5.090000000    -5.969000000
H     2.627000000    -4.767000000    -5.681000000
H     4.003000000    -4.299000000    -6.103000000
O     2.764000000    -5.853000000    -1.936000000
H     1.860000000    -5.539000000    -1.947000000
H     2.875000000    -6.292000000    -2.780000000
O    -3.990000000    -5.765000000    -5.204000000
H    -3.340000000    -6.468000000    -5.213000000
H    -3.553000000    -5.040000000    -4.758000000
O    -5.733000000    -4.187000000    -3.886000000
H    -5.587000000    -5.049000000    -4.275000000
H    -4.854000000    -3.843000000    -3.728000000
