215
-1449.91428
C    -2.984000000    -2.893000000     2.101000000
H    -3.431000000    -2.129000000     1.470000000
C    -2.149000000    -2.645000000     3.150000000
C    -1.551000000    -3.694000000     3.870000000
H    -0.819000000    -3.509000000     4.652000000
C    -1.850000000    -1.156000000     3.615000000
O    -3.021000000    -0.411000000     3.779000000
H    -1.302000000    -0.788000000     2.735000000
O    -1.089000000    -0.993000000     4.834000000
C    -0.031000000    -0.140000000     4.758000000
C     1.257000000    -0.663000000     4.544000000
H     1.389000000    -1.741000000     4.585000000
C     2.314000000     0.190000000     4.312000000
O     3.502000000    -0.402000000     3.935000000
C     2.126000000     1.582000000     4.201000000
C     3.201000000     2.558000000     3.908000000
H     3.135000000     3.543000000     4.375000000
C     3.265000000     2.748000000     2.413000000
C     2.633000000     3.881000000     1.797000000
H     2.170000000     4.572000000     2.497000000
H     4.113000000     2.211000000     4.399000000
C     0.814000000     2.044000000     4.352000000
H     0.668000000     3.115000000     4.471000000
C    -0.230000000     1.212000000     4.625000000
C    -1.608000000     1.802000000     4.945000000
H    -1.510000000     2.749000000     5.481000000
H    -2.255000000     1.183000000     5.570000000
C    -2.381000000     1.878000000     3.647000000
C    -2.371000000     3.123000000     2.922000000
H    -1.797000000     3.945000000     3.342000000
C    -3.087000000     0.816000000     3.186000000
C    -3.731000000     0.976000000     1.904000000
H    -4.353000000     0.179000000     1.505000000
C    -3.722000000     2.204000000     1.202000000
O    -4.376000000     2.247000000    -0.012000000
C    -3.538000000     2.097000000    -1.182000000
C    -4.246000000     1.168000000    -2.157000000
C    -4.022000000     1.402000000    -3.530000000
H    -3.429000000     2.218000000    -3.934000000
C    -5.020000000     0.111000000    -1.783000000
H    -5.177000000    -0.167000000    -0.743000000
O    -3.192000000     3.305000000    -1.768000000
H    -2.640000000     1.577000000    -0.818000000
C    -3.052000000     3.278000000     1.727000000
C    -2.976000000     4.554000000     0.889000000
H    -2.743000000     5.360000000     1.588000000
H    -3.925000000     4.832000000     0.427000000
C    -1.806000000     4.450000000    -0.017000000
C    -0.509000000     4.887000000     0.347000000
H    -0.368000000     5.234000000     1.367000000
C    -2.075000000     3.949000000    -1.292000000
C    -1.008000000     3.907000000    -2.177000000
H    -1.024000000     3.370000000    -3.122000000
C     0.242000000     4.253000000    -1.773000000
O     1.262000000     4.025000000    -2.673000000
C     1.970000000     2.828000000    -2.417000000
C     2.181000000     1.871000000    -3.652000000
C     1.166000000     1.506000000    -4.523000000
H     0.160000000     1.847000000    -4.291000000
C     3.431000000     1.365000000    -3.831000000
H     4.234000000     1.533000000    -3.118000000
O     3.275000000     3.176000000    -1.746000000
H     1.324000000     2.333000000    -1.678000000
C     0.525000000     4.772000000    -0.548000000
C     1.937000000     5.188000000    -0.190000000
H     1.817000000     5.973000000     0.559000000
H     2.543000000     5.704000000    -0.938000000
C     2.690000000     4.066000000     0.452000000
C     3.319000000     3.147000000    -0.364000000
C     4.056000000     2.134000000     0.233000000
H     4.757000000     1.554000000    -0.361000000
C     3.897000000     1.808000000     1.589000000
O     4.548000000     0.702000000     2.079000000
C     3.721000000    -0.413000000     2.493000000
H     2.799000000    -0.289000000     1.908000000
C     4.064000000    -1.735000000     1.817000000
C     3.555000000    -2.953000000     2.282000000
H     2.913000000    -3.046000000     3.154000000
C     4.832000000    -1.706000000     0.651000000
H     5.094000000    -0.782000000     0.141000000
C     4.956000000    -2.844000000    -0.105000000
O     5.570000000    -2.840000000    -1.327000000
C     4.458000000    -4.046000000     0.284000000
H     4.598000000    -4.920000000    -0.348000000
C     3.775000000    -4.128000000     1.534000000
O     3.212000000    -5.299000000     1.890000000
C     2.426000000    -5.495000000     3.036000000
C     1.065000000    -5.630000000     2.954000000
H     0.514000000    -5.499000000     2.026000000
C     3.079000000    -5.777000000     4.226000000
H     4.161000000    -5.870000000     4.263000000
C     2.341000000    -6.142000000     5.403000000
H     2.844000000    -6.275000000     6.358000000
C     0.924000000    -6.283000000     5.308000000
H     0.219000000    -6.451000000     6.118000000
C     0.308000000    -5.997000000     4.041000000
O    -1.054000000    -6.034000000     4.032000000
C    -1.776000000    -5.003000000     3.480000000
C    -2.728000000    -5.267000000     2.483000000
H    -2.841000000    -6.261000000     2.059000000
C    -3.294000000    -4.261000000     1.773000000
O    -4.128000000    -4.526000000     0.638000000
C    -5.217000000    -3.742000000     0.340000000
C    -5.263000000    -3.058000000    -0.884000000
H    -4.431000000    -3.177000000    -1.574000000
C    -6.252000000    -3.662000000     1.259000000
H    -6.155000000    -4.301000000     2.132000000
C    -7.399000000    -2.874000000     0.993000000
H    -8.192000000    -2.889000000     1.736000000
C    -7.466000000    -2.222000000    -0.223000000
H    -8.458000000    -1.869000000    -0.492000000
C    -6.447000000    -2.328000000    -1.203000000
O    -6.535000000    -1.696000000    -2.417000000
C    -5.659000000    -0.647000000    -2.764000000
C    -5.358000000    -0.422000000    -4.128000000
H    -5.869000000    -1.012000000    -4.883000000
C    -4.536000000     0.584000000    -4.522000000
O    -4.311000000     0.755000000    -5.845000000
C    -3.129000000     1.213000000    -6.300000000
C    -1.945000000     0.507000000    -6.240000000
H    -1.993000000    -0.500000000    -5.833000000
C    -3.104000000     2.524000000    -6.742000000
H    -4.017000000     3.093000000    -6.901000000
C    -1.891000000     3.141000000    -7.066000000
H    -1.832000000     4.196000000    -7.320000000
C    -0.701000000     2.386000000    -6.987000000
H     0.288000000     2.795000000    -7.179000000
C    -0.762000000     1.036000000    -6.648000000
O     0.398000000     0.286000000    -6.508000000
C     1.416000000     0.662000000    -5.625000000
C     2.639000000     0.086000000    -5.720000000
H     2.815000000    -0.667000000    -6.484000000
C     3.670000000     0.504000000    -4.879000000
O     4.912000000     0.074000000    -5.142000000
C     5.723000000    -0.409000000    -4.070000000
C     6.828000000     0.293000000    -3.681000000
H     7.161000000     1.182000000    -4.211000000
C     7.504000000    -0.018000000    -2.513000000
H     8.463000000     0.468000000    -2.353000000
C     7.025000000    -1.065000000    -1.721000000
H     7.511000000    -1.294000000    -0.776000000
C     5.904000000    -1.771000000    -2.123000000
C     5.254000000    -1.396000000    -3.266000000
H     4.335000000    -1.931000000    -3.493000000
C    -1.057000000    -0.929000000    -1.566000000
H    -2.079000000    -0.982000000    -1.933000000
C    -0.805000000    -0.430000000    -0.260000000
H    -1.562000000    -0.098000000     0.446000000
C     0.519000000    -0.305000000     0.212000000
H     0.786000000     0.208000000     1.131000000
C     1.598000000    -0.575000000    -0.638000000
H     2.607000000    -0.308000000    -0.332000000
C     1.333000000    -0.954000000    -1.939000000
H     2.218000000    -1.148000000    -2.540000000
C     0.032000000    -1.243000000    -2.381000000
C    -0.045000000    -2.049000000    -3.701000000
O     0.947000000    -2.613000000    -4.147000000
O    -1.120000000    -2.400000000    -4.179000000
O     0.971000000    -4.816000000    -2.368000000
H     1.068000000    -3.891000000    -2.595000000
H     0.049000000    -4.909000000    -2.129000000
O    -0.688000000    -2.177000000    -9.542000000
H    -1.329000000    -2.627000000   -10.093000000
H    -0.745000000    -2.621000000    -8.696000000
O    -4.522000000    -5.044000000    -3.536000000
H    -5.330000000    -5.115000000    -3.028000000
H    -4.665000000    -5.613000000    -4.293000000
O     5.162000000    -0.528000000    -8.069000000
H     5.145000000    -0.233000000    -7.158000000
H     4.533000000    -1.249000000    -8.099000000
O    -0.326000000    -3.335000000    -6.763000000
H    -0.387000000    -4.186000000    -6.329000000
H    -0.482000000    -2.699000000    -6.065000000
O     0.389000000    -8.236000000    -0.862000000
H     0.858000000    -8.685000000    -0.158000000
H    -0.095000000    -7.539000000    -0.420000000
O    -1.805000000    -4.669000000    -2.920000000
H    -2.744000000    -4.826000000    -3.025000000
H    -1.648000000    -3.844000000    -3.379000000
O     6.052000000    -4.577000000    -4.460000000
H     5.309000000    -5.142000000    -4.674000000
H     5.722000000    -3.999000000    -3.772000000
O    -3.467000000    -2.707000000    -5.284000000
H    -3.732000000    -3.262000000    -4.551000000
H    -2.535000000    -2.546000000    -5.138000000
O     3.044000000    -2.480000000    -8.085000000
H     3.293000000    -3.349000000    -8.402000000
H     2.777000000    -2.006000000    -8.872000000
O    -0.748000000    -5.870000000    -0.085000000
H    -1.382000000    -6.587000000    -0.100000000
H    -1.211000000    -5.131000000    -0.478000000
O    -0.942000000    -5.570000000    -5.359000000
H    -0.080000000    -5.968000000    -5.238000000
H    -1.195000000    -5.277000000    -4.483000000
O     4.380000000    -6.826000000    -4.988000000
H     4.475000000    -7.700000000    -5.367000000
H     3.529000000    -6.520000000    -5.304000000
O     0.785000000     0.470000000    -9.993000000
H     1.352000000    -0.139000000   -10.465000000
H     0.299000000    -0.082000000    -9.380000000
O     2.876000000    -6.517000000    -2.123000000
H     2.035000000    -6.072000000    -2.225000000
H     3.127000000    -6.349000000    -1.215000000
O     1.842000000    -6.373000000    -4.710000000
H     1.607000000    -5.514000000    -4.358000000
H     2.099000000    -6.884000000    -3.943000000
O     1.383000000    -5.399000000    -8.021000000
H     0.892000000    -4.596000000    -7.847000000
H     1.365000000    -5.876000000    -7.192000000
O     2.878000000    -3.577000000    -5.618000000
H     2.789000000    -2.994000000    -6.373000000
H     2.256000000    -3.234000000    -4.977000000
O    -3.615000000    -4.773000000    -7.349000000
H    -2.731000000    -5.057000000    -7.117000000
H    -3.696000000    -3.901000000    -6.962000000
