215
-1464.54771
C    -3.609000000    -2.897000000     2.258000000
H    -4.166000000    -2.090000000     1.789000000
C    -2.512000000    -2.481000000     3.000000000
C    -1.647000000    -3.432000000     3.549000000
H    -0.756000000    -3.112000000     4.083000000
C    -2.330000000    -1.025000000     3.199000000
O    -3.595000000    -0.280000000     3.138000000
H    -1.721000000    -0.591000000     2.392000000
O    -1.641000000    -0.751000000     4.453000000
C    -0.613000000     0.190000000     4.466000000
C     0.708000000    -0.236000000     4.544000000
H     0.933000000    -1.299000000     4.549000000
C     1.759000000     0.664000000     4.561000000
O     2.990000000     0.080000000     4.318000000
C     1.490000000     2.050000000     4.427000000
C     2.648000000     3.047000000     4.024000000
H     2.539000000     4.037000000     4.473000000
C     2.867000000     3.128000000     2.540000000
C     2.244000000     4.018000000     1.687000000
H     1.507000000     4.740000000     2.029000000
H     3.523000000     2.521000000     4.413000000
C     0.143000000     2.468000000     4.434000000
H    -0.099000000     3.528000000     4.425000000
C    -0.920000000     1.600000000     4.474000000
C    -2.371000000     2.150000000     4.426000000
H    -2.471000000     3.172000000     4.795000000
H    -2.884000000     1.489000000     5.127000000
C    -2.947000000     2.089000000     2.979000000
C    -2.887000000     3.237000000     2.196000000
H    -2.367000000     4.127000000     2.542000000
C    -3.618000000     0.928000000     2.490000000
C    -4.163000000     0.943000000     1.228000000
H    -4.685000000     0.083000000     0.817000000
C    -4.110000000     2.119000000     0.417000000
O    -4.461000000     2.020000000    -0.908000000
C    -3.404000000     1.820000000    -1.913000000
C    -3.902000000     0.814000000    -2.917000000
C    -3.505000000     0.983000000    -4.271000000
H    -2.892000000     1.824000000    -4.586000000
C    -4.645000000    -0.300000000    -2.515000000
H    -4.835000000    -0.368000000    -1.447000000
O    -3.179000000     3.140000000    -2.476000000
H    -2.452000000     1.484000000    -1.476000000
C    -3.399000000     3.248000000     0.875000000
C    -3.237000000     4.534000000    -0.025000000
H    -3.266000000     5.404000000     0.635000000
H    -4.067000000     4.661000000    -0.723000000
C    -1.969000000     4.494000000    -0.897000000
C    -0.721000000     4.907000000    -0.458000000
H    -0.693000000     5.479000000     0.466000000
C    -2.052000000     3.796000000    -2.140000000
C    -0.926000000     3.660000000    -2.942000000
H    -1.021000000     3.163000000    -3.904000000
C     0.327000000     4.026000000    -2.394000000
O     1.417000000     3.573000000    -3.008000000
C     2.082000000     2.428000000    -2.406000000
C     2.472000000     1.436000000    -3.488000000
C     1.700000000     1.272000000    -4.632000000
H     0.870000000     1.935000000    -4.864000000
C     3.585000000     0.632000000    -3.219000000
H     4.170000000     0.660000000    -2.303000000
O     3.257000000     2.771000000    -1.652000000
H     1.414000000     1.965000000    -1.665000000
C     0.404000000     4.667000000    -1.167000000
C     1.760000000     5.046000000    -0.629000000
H     1.599000000     5.981000000    -0.088000000
H     2.543000000     5.255000000    -1.362000000
C     2.336000000     3.952000000     0.297000000
C     3.203000000     2.967000000    -0.298000000
C     3.849000000     2.175000000     0.537000000
H     4.545000000     1.421000000     0.176000000
C     3.649000000     2.183000000     1.908000000
O     4.238000000     1.104000000     2.596000000
C     3.315000000    -0.027000000     2.947000000
H     2.477000000     0.209000000     2.275000000
C     4.042000000    -1.351000000     2.729000000
C     3.507000000    -2.527000000     3.340000000
H     2.739000000    -2.468000000     4.107000000
C     5.029000000    -1.434000000     1.770000000
H     5.272000000    -0.522000000     1.230000000
C     5.609000000    -2.668000000     1.465000000
O     6.573000000    -2.698000000     0.510000000
C     5.046000000    -3.838000000     2.035000000
H     5.357000000    -4.760000000     1.552000000
C     4.029000000    -3.796000000     2.925000000
O     3.500000000    -4.967000000     3.450000000
C     2.414000000    -5.062000000     4.286000000
C     1.191000000    -5.329000000     3.704000000
H     1.061000000    -5.579000000     2.654000000
C     2.513000000    -4.897000000     5.673000000
H     3.437000000    -4.572000000     6.144000000
C     1.401000000    -5.105000000     6.506000000
H     1.491000000    -5.053000000     7.588000000
C     0.154000000    -5.388000000     5.931000000
H    -0.731000000    -5.456000000     6.558000000
C     0.046000000    -5.557000000     4.592000000
O    -1.203000000    -5.801000000     3.910000000
C    -1.919000000    -4.815000000     3.260000000
C    -2.950000000    -5.167000000     2.479000000
H    -3.161000000    -6.206000000     2.240000000
C    -3.825000000    -4.256000000     1.977000000
O    -4.722000000    -4.656000000     1.037000000
C    -5.499000000    -3.848000000     0.298000000
C    -5.309000000    -3.588000000    -1.081000000
H    -4.409000000    -4.027000000    -1.504000000
C    -6.575000000    -3.175000000     0.959000000
H    -6.841000000    -3.460000000     1.974000000
C    -7.383000000    -2.224000000     0.261000000
H    -8.255000000    -1.755000000     0.708000000
C    -7.127000000    -1.994000000    -1.118000000
H    -7.761000000    -1.405000000    -1.775000000
C    -6.120000000    -2.647000000    -1.762000000
O    -5.850000000    -2.288000000    -3.051000000
C    -5.023000000    -1.219000000    -3.464000000
C    -4.572000000    -1.143000000    -4.768000000
H    -4.901000000    -1.817000000    -5.555000000
C    -3.760000000    -0.064000000    -5.172000000
O    -3.352000000     0.146000000    -6.469000000
C    -2.151000000     0.715000000    -6.927000000
C    -0.962000000     0.078000000    -6.646000000
H    -0.907000000    -0.872000000    -6.122000000
C    -2.163000000     1.964000000    -7.609000000
H    -3.147000000     2.303000000    -7.922000000
C    -0.916000000     2.558000000    -7.937000000
H    -0.854000000     3.453000000    -8.551000000
C     0.310000000     1.862000000    -7.740000000
H     1.282000000     2.259000000    -8.023000000
C     0.252000000     0.674000000    -7.020000000
O     1.437000000     0.056000000    -6.719000000
C     2.116000000     0.372000000    -5.569000000
C     3.198000000    -0.492000000    -5.260000000
H     3.495000000    -1.280000000    -5.947000000
C     3.964000000    -0.352000000    -4.146000000
O     4.924000000    -1.251000000    -3.771000000
C     5.776000000    -1.099000000    -2.686000000
C     6.783000000    -0.080000000    -2.702000000
H     6.691000000     0.612000000    -3.535000000
C     7.751000000    -0.025000000    -1.705000000
H     8.546000000     0.715000000    -1.657000000
C     7.673000000    -0.876000000    -0.625000000
H     8.339000000    -0.729000000     0.221000000
C     6.683000000    -1.854000000    -0.566000000
C     5.787000000    -2.016000000    -1.621000000
H     5.120000000    -2.874000000    -1.598000000
C    -0.977000000    -1.577000000    -1.323000000
H    -1.859000000    -2.045000000    -1.751000000
C    -1.196000000    -0.530000000    -0.433000000
H    -2.203000000    -0.349000000    -0.067000000
C    -0.105000000     0.135000000     0.116000000
H    -0.246000000     0.964000000     0.889000000
C     1.172000000    -0.278000000    -0.147000000
H     2.037000000     0.311000000     0.146000000
C     1.422000000    -1.304000000    -1.087000000
H     2.464000000    -1.413000000    -1.378000000
C     0.308000000    -2.009000000    -1.612000000
C     0.518000000    -3.181000000    -2.477000000
O     1.694000000    -3.596000000    -2.619000000
O    -0.385000000    -3.678000000    -3.170000000
O    -1.825000000    -6.690000000    -6.894000000
H    -1.711000000    -7.576000000    -6.550000000
H    -1.047000000    -6.216000000    -6.598000000
O    -2.192000000    -2.745000000    -8.041000000
H    -2.211000000    -2.824000000    -7.087000000
H    -1.273000000    -2.578000000    -8.250000000
O     3.554000000    -6.306000000     0.543000000
H     3.362000000    -5.372000000     0.453000000
H     3.246000000    -6.693000000    -0.277000000
O     5.544000000    -5.423000000    -6.448000000
H     5.134000000    -4.752000000    -5.903000000
H     5.078000000    -6.229000000    -6.228000000
O    -2.143000000    -3.391000000    -5.219000000
H    -2.810000000    -4.054000000    -5.041000000
H    -1.542000000    -3.450000000    -4.476000000
O     2.880000000    -3.788000000    -0.229000000
H     2.430000000    -3.047000000     0.177000000
H     2.426000000    -3.916000000    -1.062000000
O    -2.318000000    -6.513000000    -0.476000000
H    -2.582000000    -7.345000000    -0.084000000
H    -2.761000000    -5.848000000     0.051000000
O     2.190000000    -9.144000000    -0.496000000
H     1.469000000    -8.805000000    -1.027000000
H     1.803000000    -9.293000000     0.366000000
O     5.958000000    -6.047000000    -2.841000000
H     5.258000000    -6.530000000    -2.402000000
H     6.428000000    -5.609000000    -2.132000000
O    -0.191000000    -8.112000000    -1.730000000
H    -0.798000000    -7.653000000    -1.150000000
H     0.410000000    -7.432000000    -2.035000000
O    -2.424000000    -5.701000000    -2.982000000
H    -1.667000000    -5.116000000    -2.954000000
H    -2.491000000    -6.050000000    -2.093000000
O     1.404000000    -6.192000000    -2.170000000
H     1.614000000    -6.508000000    -3.049000000
H     1.295000000    -5.247000000    -2.275000000
O    -1.949000000    -9.172000000    -3.710000000
H    -1.505000000    -9.509000000    -4.489000000
H    -1.240000000    -8.869000000    -3.143000000
O     0.185000000    -5.411000000    -5.600000000
H     0.976000000    -5.035000000    -5.985000000
H    -0.065000000    -4.792000000    -4.913000000
O     0.955000000    -7.866000000    -4.818000000
H     0.837000000    -6.974000000    -5.143000000
H     0.464000000    -8.412000000    -5.432000000
O     2.422000000    -4.027000000    -6.643000000
H     2.715000000    -4.103000000    -5.735000000
H     3.137000000    -3.571000000    -7.088000000
O     3.889000000    -4.560000000    -4.230000000
H     3.213000000    -4.241000000    -3.631000000
H     4.418000000    -5.154000000    -3.699000000
O     0.446000000    -2.242000000    -8.545000000
H     1.005000000    -1.784000000    -7.917000000
H     1.026000000    -2.440000000    -9.281000000
O    -5.291000000    -5.204000000    -3.923000000
H    -5.436000000    -6.059000000    -4.329000000
H    -4.340000000    -5.134000000    -3.846000000
