215
-1445.44113
C    -3.255000000    -3.570000000     1.629000000
H    -3.969000000    -2.931000000     1.114000000
C    -2.443000000    -3.000000000     2.591000000
C    -1.383000000    -3.755000000     3.056000000
H    -0.564000000    -3.363000000     3.655000000
C    -2.554000000    -1.505000000     2.915000000
O    -3.915000000    -1.022000000     2.683000000
H    -1.885000000    -0.892000000     2.294000000
O    -2.227000000    -1.232000000     4.270000000
C    -1.289000000    -0.246000000     4.402000000
C     0.017000000    -0.568000000     4.364000000
H     0.454000000    -1.562000000     4.307000000
C     0.962000000     0.395000000     4.539000000
O     2.293000000     0.012000000     4.447000000
C     0.580000000     1.747000000     4.503000000
C     1.672000000     2.837000000     4.493000000
H     1.349000000     3.742000000     5.013000000
C     2.071000000     3.187000000     3.051000000
C     1.345000000     4.136000000     2.365000000
H     0.625000000     4.721000000     2.931000000
H     2.536000000     2.408000000     5.005000000
C    -0.738000000     2.055000000     4.364000000
H    -1.078000000     3.069000000     4.166000000
C    -1.702000000     1.076000000     4.303000000
C    -3.245000000     1.367000000     4.301000000
H    -3.498000000     2.269000000     4.862000000
H    -3.668000000     0.494000000     4.803000000
C    -3.738000000     1.358000000     2.846000000
C    -3.875000000     2.597000000     2.208000000
H    -3.770000000     3.514000000     2.781000000
C    -4.019000000     0.206000000     2.140000000
C    -4.432000000     0.360000000     0.840000000
H    -4.633000000    -0.567000000     0.309000000
C    -4.504000000     1.519000000     0.141000000
O    -4.732000000     1.397000000    -1.174000000
C    -3.592000000     1.552000000    -2.134000000
C    -3.637000000     0.554000000    -3.296000000
C    -3.098000000     0.856000000    -4.496000000
H    -2.598000000     1.819000000    -4.550000000
C    -4.113000000    -0.769000000    -3.047000000
H    -4.370000000    -1.068000000    -2.034000000
O    -3.450000000     2.908000000    -2.489000000
H    -2.667000000     1.286000000    -1.601000000
C    -4.140000000     2.672000000     0.805000000
C    -4.055000000     4.077000000     0.037000000
H    -4.203000000     4.892000000     0.748000000
H    -4.891000000     4.059000000    -0.666000000
C    -2.760000000     4.319000000    -0.691000000
C    -1.735000000     5.004000000    -0.024000000
H    -1.958000000     5.516000000     0.908000000
C    -2.488000000     3.602000000    -1.814000000
C    -1.221000000     3.562000000    -2.391000000
H    -1.082000000     2.911000000    -3.250000000
C    -0.218000000     4.294000000    -1.770000000
O     1.010000000     4.183000000    -2.343000000
C     2.020000000     3.281000000    -1.802000000
C     2.798000000     2.500000000    -2.853000000
C     2.098000000     2.203000000    -4.030000000
H     1.084000000     2.576000000    -4.157000000
C     4.028000000     1.985000000    -2.697000000
H     4.587000000     2.214000000    -1.794000000
O     2.930000000     3.992000000    -0.901000000
H     1.523000000     2.592000000    -1.102000000
C    -0.422000000     4.874000000    -0.496000000
C     0.725000000     5.444000000     0.331000000
H     0.347000000     6.160000000     1.064000000
H     1.425000000     5.971000000    -0.321000000
C     1.638000000     4.437000000     1.040000000
C     2.778000000     3.807000000     0.452000000
C     3.385000000     2.721000000     1.082000000
H     4.140000000     2.186000000     0.511000000
C     3.037000000     2.401000000     2.384000000
O     3.630000000     1.324000000     2.967000000
C     2.811000000     0.101000000     3.106000000
H     1.988000000     0.064000000     2.377000000
C     3.661000000    -1.194000000     2.849000000
C     3.630000000    -2.364000000     3.644000000
H     3.063000000    -2.387000000     4.572000000
C     4.477000000    -1.156000000     1.720000000
H     4.599000000    -0.245000000     1.140000000
C     5.102000000    -2.286000000     1.336000000
O     6.144000000    -2.228000000     0.376000000
C     4.994000000    -3.468000000     2.048000000
H     5.561000000    -4.347000000     1.750000000
C     4.251000000    -3.512000000     3.224000000
O     4.192000000    -4.628000000     4.037000000
C     2.942000000    -5.016000000     4.549000000
C     1.930000000    -5.176000000     3.572000000
H     2.212000000    -5.209000000     2.523000000
C     2.648000000    -5.044000000     5.882000000
H     3.428000000    -4.833000000     6.609000000
C     1.325000000    -5.213000000     6.323000000
H     1.117000000    -5.124000000     7.386000000
C     0.345000000    -5.475000000     5.322000000
H    -0.661000000    -5.690000000     5.673000000
C     0.697000000    -5.565000000     3.974000000
O    -0.202000000    -5.894000000     3.098000000
C    -1.250000000    -5.124000000     2.721000000
C    -2.097000000    -5.665000000     1.737000000
H    -2.045000000    -6.729000000     1.519000000
C    -3.051000000    -4.896000000     1.242000000
O    -3.861000000    -5.528000000     0.284000000
C    -4.673000000    -4.798000000    -0.621000000
C    -4.205000000    -4.293000000    -1.877000000
H    -3.268000000    -4.710000000    -2.237000000
C    -5.961000000    -4.491000000    -0.208000000
H    -6.298000000    -4.865000000     0.755000000
C    -6.764000000    -3.701000000    -1.036000000
H    -7.833000000    -3.595000000    -0.868000000
C    -6.308000000    -3.325000000    -2.297000000
H    -7.012000000    -2.768000000    -2.910000000
C    -4.998000000    -3.566000000    -2.738000000
O    -4.521000000    -3.001000000    -3.905000000
C    -4.151000000    -1.698000000    -4.108000000
C    -3.682000000    -1.325000000    -5.360000000
H    -3.680000000    -1.981000000    -6.226000000
C    -3.085000000    -0.085000000    -5.528000000
O    -2.655000000     0.187000000    -6.824000000
C    -1.563000000     1.018000000    -7.136000000
C    -0.408000000     0.731000000    -6.388000000
H    -0.367000000     0.117000000    -5.492000000
C    -1.609000000     1.872000000    -8.210000000
H    -2.505000000     2.096000000    -8.783000000
C    -0.430000000     2.487000000    -8.562000000
H    -0.454000000     3.146000000    -9.427000000
C     0.741000000     2.234000000    -7.846000000
H     1.667000000     2.576000000    -8.301000000
C     0.786000000     1.394000000    -6.720000000
O     1.937000000     0.980000000    -6.121000000
C     2.678000000     1.453000000    -5.037000000
C     3.943000000     0.960000000    -4.804000000
H     4.328000000     0.276000000    -5.556000000
C     4.660000000     1.226000000    -3.666000000
O     5.864000000     0.637000000    -3.403000000
C     6.368000000     0.387000000    -2.165000000
C     7.402000000     1.172000000    -1.688000000
H     7.734000000     2.029000000    -2.268000000
C     8.101000000     0.803000000    -0.530000000
H     9.007000000     1.340000000    -0.262000000
C     7.724000000    -0.372000000     0.168000000
H     8.321000000    -0.630000000     1.039000000
C     6.658000000    -1.088000000    -0.283000000
C     5.984000000    -0.746000000    -1.450000000
H     5.279000000    -1.462000000    -1.864000000
C    -0.688000000    -1.142000000    -1.753000000
H    -1.605000000    -1.591000000    -2.126000000
C    -0.855000000    -0.441000000    -0.601000000
H    -1.841000000    -0.225000000    -0.197000000
C     0.270000000     0.189000000     0.017000000
H     0.064000000     0.788000000     0.919000000
C     1.542000000     0.123000000    -0.614000000
H     2.405000000     0.640000000    -0.201000000
C     1.659000000    -0.593000000    -1.822000000
H     2.608000000    -0.727000000    -2.335000000
C     0.570000000    -1.279000000    -2.421000000
C     0.728000000    -1.869000000    -3.751000000
O     1.818000000    -1.920000000    -4.205000000
O    -0.238000000    -2.473000000    -4.241000000
O    -0.175000000    -4.317000000    -9.652000000
H    -0.983000000    -4.782000000    -9.872000000
H    -0.439000000    -3.400000000    -9.578000000
O    -0.344000000    -2.007000000    -8.373000000
H    -0.868000000    -2.485000000    -7.731000000
H     0.549000000    -2.323000000    -8.235000000
O     6.688000000    -1.205000000    -5.976000000
H     7.071000000    -0.346000000    -6.151000000
H     6.768000000    -1.314000000    -5.028000000
O     1.942000000    -4.322000000    -0.802000000
H     2.053000000    -3.417000000    -0.510000000
H     2.472000000    -4.384000000    -1.596000000
O     1.244000000    -6.049000000    -8.437000000
H     0.898000000    -5.485000000    -9.129000000
H     0.978000000    -5.621000000    -7.624000000
O    -1.625000000    -3.417000000    -6.688000000
H    -1.844000000    -4.329000000    -6.496000000
H    -1.097000000    -3.136000000    -5.940000000
O    -3.293000000    -1.139000000    -9.225000000
H    -3.162000000    -2.074000000    -9.064000000
H    -2.949000000    -0.711000000    -8.441000000
O     0.617000000    -2.399000000     1.179000000
H     0.732000000    -1.531000000     0.793000000
H    -0.239000000    -2.690000000     0.865000000
O     4.912000000    -4.517000000    -2.585000000
H     4.275000000    -5.092000000    -3.008000000
H     4.828000000    -3.684000000    -3.050000000
O     0.293000000    -6.485000000    -1.256000000
H     0.478000000    -7.145000000    -0.588000000
H     0.805000000    -5.722000000    -0.987000000
O    -0.760000000    -4.854000000    -3.590000000
H    -0.297000000    -5.080000000    -2.783000000
H    -0.650000000    -3.907000000    -3.673000000
O     3.261000000    -6.280000000    -4.053000000
H     2.427000000    -6.234000000    -4.520000000
H     3.923000000    -6.297000000    -4.744000000
O    -0.761000000    -7.937000000    -3.386000000
H    -0.042000000    -7.796000000    -4.002000000
H    -0.580000000    -7.335000000    -2.664000000
O     0.915000000    -5.685000000    -5.483000000
H     0.252000000    -5.316000000    -4.900000000
H     1.493000000    -4.950000000    -5.685000000
O     3.161000000    -7.694000000    -1.712000000
H     3.062000000    -7.023000000    -2.387000000
H     3.111000000    -8.523000000    -2.188000000
O     2.081000000    -3.459000000    -6.521000000
H     1.763000000    -3.012000000    -5.737000000
H     2.871000000    -2.978000000    -6.767000000
O     4.323000000    -2.340000000    -4.301000000
H     3.406000000    -2.067000000    -4.271000000
H     4.570000000    -2.252000000    -5.222000000
O     4.412000000    -2.300000000    -7.018000000
H     5.187000000    -1.813000000    -6.741000000
H     4.409000000    -2.223000000    -7.972000000
O    -2.089000000    -6.020000000    -5.559000000
H    -2.787000000    -6.559000000    -5.187000000
H    -1.678000000    -5.605000000    -4.801000000
