215
-1468.16722
C    -3.380000000    -2.993000000     1.886000000
H    -3.689000000    -2.212000000     1.196000000
C    -2.725000000    -2.612000000     3.015000000
C    -2.027000000    -3.550000000     3.776000000
H    -1.412000000    -3.280000000     4.631000000
C    -2.473000000    -1.171000000     3.205000000
O    -3.640000000    -0.453000000     3.179000000
H    -1.899000000    -0.809000000     2.339000000
O    -1.841000000    -0.958000000     4.470000000
C    -0.880000000     0.000000000     4.504000000
C     0.406000000    -0.502000000     4.388000000
H     0.583000000    -1.572000000     4.308000000
C     1.454000000     0.361000000     4.259000000
O     2.769000000    -0.140000000     4.196000000
C     1.222000000     1.728000000     4.396000000
C     2.418000000     2.668000000     4.343000000
H     2.185000000     3.596000000     4.869000000
C     2.749000000     2.945000000     2.840000000
C     2.089000000     3.942000000     2.173000000
H     1.520000000     4.626000000     2.798000000
H     3.341000000     2.319000000     4.810000000
C    -0.065000000     2.263000000     4.476000000
H    -0.212000000     3.339000000     4.517000000
C    -1.141000000     1.401000000     4.453000000
C    -2.530000000     1.980000000     4.512000000
H    -2.623000000     2.993000000     4.908000000
H    -3.163000000     1.459000000     5.233000000
C    -3.174000000     1.930000000     3.138000000
C    -3.236000000     3.172000000     2.442000000
H    -2.850000000     4.077000000     2.905000000
C    -3.733000000     0.797000000     2.605000000
C    -4.214000000     0.828000000     1.348000000
H    -4.601000000    -0.081000000     0.896000000
C    -4.148000000     1.935000000     0.555000000
O    -4.412000000     1.882000000    -0.773000000
C    -3.481000000     1.923000000    -1.768000000
C    -3.895000000     0.975000000    -2.864000000
C    -3.449000000     1.195000000    -4.161000000
H    -2.745000000     2.018000000    -4.258000000
C    -4.681000000    -0.179000000    -2.608000000
H    -5.011000000    -0.460000000    -1.611000000
O    -3.298000000     3.234000000    -2.295000000
H    -2.506000000     1.563000000    -1.408000000
C    -3.640000000     3.180000000     1.054000000
C    -3.450000000     4.467000000     0.227000000
H    -3.270000000     5.294000000     0.918000000
H    -4.345000000     4.667000000    -0.367000000
C    -2.236000000     4.500000000    -0.617000000
C    -1.038000000     5.012000000    -0.089000000
H    -1.122000000     5.423000000     0.913000000
C    -2.194000000     3.951000000    -1.918000000
C    -0.965000000     3.776000000    -2.578000000
H    -0.788000000     3.238000000    -3.505000000
C     0.266000000     4.239000000    -2.015000000
O     1.437000000     3.942000000    -2.678000000
C     2.217000000     2.811000000    -2.097000000
C     2.694000000     1.884000000    -3.181000000
C     1.727000000     1.448000000    -4.106000000
H     0.764000000     1.949000000    -4.161000000
C     3.875000000     1.174000000    -2.990000000
H     4.547000000     1.407000000    -2.167000000
O     3.267000000     3.306000000    -1.304000000
H     1.480000000     2.246000000    -1.507000000
C     0.236000000     4.791000000    -0.726000000
C     1.528000000     5.257000000     0.014000000
H     1.248000000     6.010000000     0.754000000
H     2.241000000     5.558000000    -0.757000000
C     2.244000000     4.105000000     0.794000000
C     3.037000000     3.227000000     0.095000000
C     3.839000000     2.299000000     0.790000000
H     4.459000000     1.559000000     0.289000000
C     3.652000000     2.126000000     2.165000000
O     4.196000000     1.008000000     2.803000000
C     3.293000000    -0.152000000     2.841000000
H     2.420000000     0.028000000     2.197000000
C     3.884000000    -1.509000000     2.504000000
C     3.251000000    -2.702000000     2.893000000
H     2.298000000    -2.717000000     3.416000000
C     5.011000000    -1.501000000     1.676000000
H     5.438000000    -0.539000000     1.403000000
C     5.536000000    -2.705000000     1.243000000
O     6.496000000    -2.798000000     0.225000000
C     4.924000000    -3.916000000     1.590000000
H     5.281000000    -4.838000000     1.137000000
C     3.750000000    -3.882000000     2.391000000
O     3.076000000    -5.058000000     2.601000000
C     2.228000000    -5.279000000     3.617000000
C     0.900000000    -5.569000000     3.358000000
H     0.563000000    -5.445000000     2.333000000
C     2.714000000    -5.130000000     4.941000000
H     3.776000000    -4.916000000     5.032000000
C     1.830000000    -5.330000000     6.005000000
H     2.090000000    -5.297000000     7.060000000
C     0.488000000    -5.605000000     5.676000000
H    -0.126000000    -5.621000000     6.573000000
C    -0.026000000    -5.723000000     4.376000000
O    -1.368000000    -5.914000000     4.116000000
C    -2.077000000    -4.925000000     3.410000000
C    -2.774000000    -5.257000000     2.228000000
H    -2.723000000    -6.290000000     1.893000000
C    -3.463000000    -4.299000000     1.482000000
O    -4.087000000    -4.656000000     0.274000000
C    -5.087000000    -3.882000000    -0.267000000
C    -4.965000000    -3.508000000    -1.573000000
H    -4.058000000    -3.917000000    -2.011000000
C    -6.143000000    -3.383000000     0.422000000
H    -6.119000000    -3.545000000     1.497000000
C    -7.228000000    -2.688000000    -0.240000000
H    -8.073000000    -2.371000000     0.365000000
C    -7.106000000    -2.406000000    -1.637000000
H    -7.832000000    -1.795000000    -2.167000000
C    -5.924000000    -2.732000000    -2.247000000
O    -5.615000000    -2.264000000    -3.495000000
C    -5.040000000    -1.004000000    -3.675000000
C    -4.631000000    -0.675000000    -4.946000000
H    -4.877000000    -1.257000000    -5.831000000
C    -3.900000000     0.470000000    -5.207000000
O    -3.546000000     0.793000000    -6.474000000
C    -2.256000000     1.248000000    -6.733000000
C    -1.112000000     0.569000000    -6.204000000
H    -1.259000000    -0.213000000    -5.463000000
C    -2.082000000     2.084000000    -7.794000000
H    -2.977000000     2.518000000    -8.234000000
C    -0.821000000     2.408000000    -8.240000000
H    -0.606000000     3.173000000    -8.982000000
C     0.264000000     1.772000000    -7.665000000
H     1.254000000     1.921000000    -8.088000000
C     0.152000000     0.871000000    -6.644000000
O     1.253000000     0.098000000    -6.187000000
C     2.106000000     0.464000000    -5.104000000
C     3.429000000    -0.035000000    -5.063000000
H     3.745000000    -0.673000000    -5.884000000
C     4.219000000     0.172000000    -3.911000000
O     5.455000000    -0.386000000    -3.874000000
C     6.198000000    -0.571000000    -2.703000000
C     7.485000000     0.056000000    -2.639000000
H     7.815000000     0.773000000    -3.386000000
C     8.390000000    -0.385000000    -1.660000000
H     9.336000000     0.150000000    -1.660000000
C     7.975000000    -1.231000000    -0.677000000
H     8.668000000    -1.507000000     0.113000000
C     6.723000000    -1.796000000    -0.654000000
C     5.846000000    -1.604000000    -1.779000000
H     4.893000000    -2.128000000    -1.799000000
C    -0.948000000    -1.713000000    -1.940000000
H    -1.742000000    -2.271000000    -2.430000000
C    -1.267000000    -0.821000000    -0.933000000
H    -2.275000000    -0.709000000    -0.541000000
C    -0.278000000    -0.088000000    -0.297000000
H    -0.549000000     0.569000000     0.495000000
C     1.065000000    -0.300000000    -0.660000000
H     1.871000000     0.258000000    -0.191000000
C     1.430000000    -1.139000000    -1.612000000
H     2.485000000    -1.224000000    -1.857000000
C     0.393000000    -1.908000000    -2.288000000
C     0.821000000    -2.813000000    -3.382000000
O     2.005000000    -2.875000000    -3.802000000
O     0.084000000    -3.754000000    -3.677000000
O     0.019000000    -5.171000000    -8.850000000
H    -0.546000000    -5.697000000    -8.284000000
H     0.547000000    -4.651000000    -8.244000000
O    -0.587000000    -1.903000000    -8.046000000
H    -1.040000000    -2.170000000    -7.246000000
H     0.137000000    -1.356000000    -7.740000000
O     6.922000000    -2.571000000    -5.531000000
H     7.631000000    -2.049000000    -5.154000000
H     6.178000000    -2.420000000    -4.948000000
O    -3.904000000    -6.817000000    -1.881000000
H    -3.819000000    -7.432000000    -1.152000000
H    -3.308000000    -6.100000000    -1.659000000
O     2.593000000    -5.542000000    -0.529000000
H     3.161000000    -4.948000000    -0.038000000
H     3.104000000    -5.774000000    -1.304000000
O     4.575000000    -5.179000000    -6.287000000
H     3.633000000    -5.344000000    -6.330000000
H     4.679000000    -4.575000000    -5.552000000
O    -1.938000000    -2.759000000    -5.511000000
H    -2.768000000    -2.395000000    -5.202000000
H    -1.397000000    -2.824000000    -4.724000000
O    -0.213000000    -3.216000000     0.610000000
H    -0.941000000    -3.800000000     0.400000000
H    -0.197000000    -2.585000000    -0.110000000
O     5.288000000    -5.197000000    -1.678000000
H     5.393000000    -5.946000000    -2.265000000
H     6.153000000    -5.075000000    -1.288000000
O    -0.144000000    -6.134000000     0.055000000
H    -0.207000000    -6.969000000     0.518000000
H     0.796000000    -5.991000000    -0.054000000
O    -1.647000000    -4.898000000    -1.739000000
H    -0.881000000    -4.481000000    -2.133000000
H    -1.290000000    -5.435000000    -1.032000000
O     2.726000000    -5.754000000    -3.675000000
H     1.997000000    -6.315000000    -3.939000000
H     2.332000000    -4.890000000    -3.554000000
O    -1.764000000    -8.327000000    -4.216000000
H    -1.348000000    -8.801000000    -4.936000000
H    -1.387000000    -7.448000000    -4.258000000
O    -0.480000000    -5.860000000    -5.127000000
H     0.166000000    -5.916000000    -5.832000000
H    -0.337000000    -4.997000000    -4.739000000
O     4.534000000    -7.831000000    -2.880000000
H     4.002000000    -7.073000000    -3.125000000
H     3.908000000    -8.552000000    -2.818000000
O     1.668000000    -4.458000000    -6.116000000
H     1.255000000    -4.118000000    -5.322000000
H     2.146000000    -3.711000000    -6.476000000
O     4.484000000    -3.318000000    -4.199000000
H     3.627000000    -2.928000000    -4.025000000
H     4.661000000    -3.861000000    -3.431000000
O     2.596000000    -2.538000000    -7.930000000
H     2.805000000    -1.625000000    -8.130000000
H     2.305000000    -2.905000000    -8.765000000
O    -3.367000000    -5.067000000    -4.591000000
H    -2.536000000    -5.207000000    -5.046000000
H    -3.176000000    -5.270000000    -3.676000000
