215
-1452.15648
C     2.263000000     2.939000000    -3.495000000
H     2.242000000     2.019000000    -4.073000000
C     2.929000000     2.997000000    -2.254000000
C     3.022000000     4.196000000    -1.630000000
H     3.609000000     4.261000000    -0.717000000
C     3.574000000     1.704000000    -1.573000000
O     4.093000000     0.825000000    -2.599000000
H     2.794000000     1.254000000    -0.941000000
O     4.618000000     2.118000000    -0.659000000
C     4.606000000     1.413000000     0.580000000
C     4.132000000     2.085000000     1.685000000
H     3.850000000     3.134000000     1.737000000
C     3.852000000     1.339000000     2.863000000
O     3.094000000     1.928000000     3.830000000
C     4.072000000    -0.018000000     2.878000000
C     3.871000000    -0.852000000     4.139000000
H     4.639000000    -1.625000000     4.212000000
C     2.448000000    -1.444000000     4.116000000
C     2.255000000    -2.760000000     3.698000000
H     3.098000000    -3.365000000     3.373000000
H     3.901000000    -0.139000000     4.965000000
C     4.638000000    -0.645000000     1.804000000
H     4.846000000    -1.710000000     1.870000000
C     4.983000000     0.084000000     0.656000000
C     5.581000000    -0.690000000    -0.546000000
H     6.314000000    -1.493000000    -0.449000000
H     6.206000000    -0.028000000    -1.149000000
C     4.475000000    -1.209000000    -1.471000000
C     3.952000000    -2.455000000    -1.210000000
H     4.424000000    -3.028000000    -0.417000000
C     3.863000000    -0.504000000    -2.560000000
C     2.733000000    -0.994000000    -3.292000000
H     2.277000000    -0.360000000    -4.048000000
C     2.306000000    -2.254000000    -3.004000000
O     1.250000000    -2.784000000    -3.771000000
C     0.011000000    -2.940000000    -3.160000000
C    -1.201000000    -2.449000000    -3.954000000
C    -2.409000000    -3.117000000    -3.943000000
H    -2.401000000    -4.137000000    -3.569000000
C    -1.179000000    -1.123000000    -4.437000000
H    -0.270000000    -0.528000000    -4.408000000
O    -0.073000000    -4.308000000    -2.587000000
H    -0.016000000    -2.208000000    -2.339000000
C     2.949000000    -3.003000000    -2.009000000
C     2.545000000    -4.490000000    -1.726000000
H     3.409000000    -4.995000000    -1.289000000
H     2.385000000    -5.031000000    -2.661000000
C     1.435000000    -4.601000000    -0.766000000
C     1.622000000    -4.726000000     0.616000000
H     2.604000000    -4.889000000     1.052000000
C     0.160000000    -4.375000000    -1.247000000
C    -0.972000000    -4.352000000    -0.439000000
H    -1.988000000    -4.208000000    -0.797000000
C    -0.772000000    -4.486000000     0.967000000
O    -1.766000000    -4.236000000     1.820000000
C    -1.923000000    -2.904000000     2.316000000
C    -3.379000000    -2.504000000     2.085000000
C    -4.095000000    -2.989000000     0.983000000
H    -3.641000000    -3.650000000     0.249000000
C    -3.969000000    -1.614000000     3.000000000
H    -3.448000000    -1.364000000     3.921000000
O    -1.499000000    -2.865000000     3.624000000
H    -1.267000000    -2.270000000     1.701000000
C     0.527000000    -4.553000000     1.482000000
C     0.803000000    -4.697000000     3.011000000
H     1.731000000    -5.250000000     3.168000000
H     0.016000000    -5.188000000     3.586000000
C     0.937000000    -3.239000000     3.600000000
C    -0.195000000    -2.485000000     3.983000000
C     0.023000000    -1.226000000     4.378000000
H    -0.843000000    -0.629000000     4.653000000
C     1.354000000    -0.687000000     4.437000000
O     1.439000000     0.627000000     4.806000000
C     1.646000000     1.605000000     3.826000000
H     1.496000000     1.159000000     2.832000000
C     0.683000000     2.822000000     3.843000000
C     1.095000000     4.086000000     3.417000000
H     2.161000000     4.259000000     3.292000000
C    -0.726000000     2.540000000     3.813000000
H    -1.142000000     1.543000000     3.927000000
C    -1.591000000     3.597000000     3.433000000
O    -2.936000000     3.539000000     3.402000000
C    -1.062000000     4.827000000     3.121000000
H    -1.770000000     5.577000000     2.779000000
C     0.253000000     5.108000000     3.170000000
O     0.718000000     6.340000000     2.859000000
C     1.761000000     6.564000000     1.993000000
C     1.533000000     6.366000000     0.716000000
H     0.675000000     5.828000000     0.318000000
C     2.977000000     7.143000000     2.503000000
H     3.049000000     7.241000000     3.583000000
C     3.986000000     7.506000000     1.640000000
H     4.975000000     7.801000000     1.982000000
C     3.768000000     7.353000000     0.280000000
H     4.517000000     7.594000000    -0.470000000
C     2.544000000     6.731000000    -0.172000000
O     2.359000000     6.554000000    -1.548000000
C     2.343000000     5.375000000    -2.152000000
C     1.659000000     5.308000000    -3.355000000
H     1.159000000     6.161000000    -3.807000000
C     1.638000000     4.108000000    -4.054000000
O     1.066000000     4.172000000    -5.278000000
C     0.521000000     3.049000000    -5.961000000
C    -0.615000000     2.384000000    -5.361000000
H    -1.040000000     2.757000000    -4.432000000
C     0.902000000     2.687000000    -7.233000000
H     1.648000000     3.268000000    -7.771000000
C     0.271000000     1.663000000    -7.942000000
H     0.537000000     1.397000000    -8.963000000
C    -0.719000000     0.948000000    -7.296000000
H    -1.215000000     0.121000000    -7.799000000
C    -1.226000000     1.307000000    -6.025000000
O    -2.353000000     0.732000000    -5.523000000
C    -2.309000000    -0.590000000    -5.106000000
C    -3.474000000    -1.299000000    -5.125000000
H    -4.392000000    -0.844000000    -5.488000000
C    -3.553000000    -2.589000000    -4.566000000
O    -4.711000000    -3.295000000    -4.497000000
C    -5.087000000    -3.952000000    -3.358000000
C    -5.420000000    -3.279000000    -2.244000000
H    -5.459000000    -2.193000000    -2.289000000
C    -5.132000000    -5.304000000    -3.320000000
H    -4.978000000    -5.889000000    -4.223000000
C    -5.537000000    -5.991000000    -2.122000000
H    -5.693000000    -7.055000000    -2.280000000
C    -5.927000000    -5.266000000    -0.977000000
H    -6.302000000    -5.767000000    -0.088000000
C    -5.983000000    -3.887000000    -1.124000000
O    -6.316000000    -3.064000000    -0.116000000
C    -5.467000000    -2.700000000     0.930000000
C    -6.067000000    -1.881000000     1.864000000
H    -7.113000000    -1.593000000     1.791000000
C    -5.299000000    -1.334000000     2.858000000
O    -5.848000000    -0.287000000     3.602000000
C    -5.088000000     0.692000000     4.280000000
C    -5.027000000     0.758000000     5.683000000
H    -5.543000000     0.038000000     6.312000000
C    -4.224000000     1.707000000     6.287000000
H    -4.275000000     1.701000000     7.373000000
C    -3.480000000     2.640000000     5.549000000
H    -2.872000000     3.437000000     5.968000000
C    -3.622000000     2.596000000     4.159000000
C    -4.366000000     1.629000000     3.526000000
H    -4.364000000     1.448000000     2.454000000
C    -2.136000000     0.609000000     0.397000000
H    -3.029000000    -0.012000000     0.366000000
C    -0.926000000     0.004000000     0.279000000
H    -0.900000000    -1.072000000     0.126000000
C     0.284000000     0.699000000     0.241000000
H     1.314000000     0.195000000     0.133000000
C     0.225000000     2.141000000     0.418000000
H     1.125000000     2.750000000     0.407000000
C    -0.977000000     2.755000000     0.495000000
H    -1.031000000     3.840000000     0.546000000
C    -2.194000000     2.022000000     0.445000000
C    -3.523000000     2.688000000     0.305000000
O    -3.604000000     3.883000000     0.566000000
O    -4.549000000     2.059000000     0.035000000
O    -8.329000000     2.673000000    -0.457000000
H    -7.784000000     2.643000000     0.329000000
H    -7.717000000     2.870000000    -1.166000000
O    -3.339000000     4.133000000    -5.558000000
H    -3.089000000     4.660000000    -4.799000000
H    -4.295000000     4.183000000    -5.579000000
O    -9.295000000    -0.187000000    -1.255000000
H    -9.287000000    -0.424000000    -2.182000000
H    -8.418000000     0.159000000    -1.088000000
O    -6.494000000     0.863000000    -3.260000000
H    -5.857000000     1.510000000    -3.563000000
H    -6.254000000     0.699000000    -2.348000000
O    -2.322000000     8.005000000     0.363000000
H    -2.777000000     8.207000000     1.180000000
H    -2.915000000     7.414000000    -0.102000000
O    -5.733000000     3.651000000    -2.017000000
H    -5.404000000     3.502000000    -1.131000000
H    -5.124000000     3.176000000    -2.582000000
O    -7.704000000     5.525000000     2.781000000
H    -6.851000000     5.299000000     2.410000000
H    -8.306000000     4.881000000     2.408000000
O    -5.508000000     6.310000000    -3.467000000
H    -5.015000000     7.119000000    -3.336000000
H    -5.961000000     6.168000000    -2.636000000
O    -6.712000000     6.724000000    -1.064000000
H    -6.925000000     7.608000000    -0.765000000
H    -6.319000000     6.301000000    -0.301000000
O    -6.015000000     4.291000000    -5.264000000
H    -5.876000000     4.698000000    -4.409000000
H    -6.879000000     3.884000000    -5.198000000
O    -3.102000000     5.251000000    -1.637000000
H    -3.268000000     4.815000000    -0.801000000
H    -3.902000000     5.110000000    -2.144000000
O    -8.414000000     2.518000000    -4.338000000
H    -7.908000000     2.108000000    -3.636000000
H    -8.540000000     1.821000000    -4.981000000
O    -2.177000000     6.304000000    -4.015000000
H    -2.278000000     7.255000000    -4.040000000
H    -2.286000000     6.076000000    -3.091000000
O    -6.530000000     2.609000000     1.576000000
H    -6.143000000     3.139000000     2.273000000
H    -5.794000000     2.395000000     1.002000000
O    -5.034000000     5.511000000     1.969000000
H    -4.496000000     4.946000000     1.414000000
H    -4.565000000     5.544000000     2.803000000
O    -8.697000000     0.601000000     2.996000000
H    -8.390000000    -0.053000000     3.624000000
H    -7.983000000     0.680000000     2.363000000
O    -6.142000000     0.212000000    -0.696000000
H    -5.526000000     0.857000000    -0.348000000
H    -5.944000000    -0.591000000    -0.215000000
O    -4.040000000     5.997000000     4.594000000
H    -3.178000000     5.840000000     4.979000000
H    -4.657000000     5.791000000     5.296000000
O    -3.741000000     2.049000000    -3.468000000
H    -3.334000000     2.265000000    -4.307000000
H    -3.525000000     1.127000000    -3.327000000
