215
-1448.38716
C    -2.125000000    -5.013000000    -0.709000000
H    -2.830000000    -4.547000000    -1.392000000
C    -1.871000000    -4.611000000     0.622000000
C    -1.010000000    -5.334000000     1.409000000
H    -0.798000000    -5.077000000     2.444000000
C    -2.707000000    -3.441000000     1.230000000
O    -4.068000000    -3.284000000     0.628000000
H    -1.987000000    -2.670000000     0.920000000
O    -2.846000000    -3.515000000     2.665000000
C    -2.645000000    -2.362000000     3.329000000
C    -1.459000000    -2.126000000     3.848000000
H    -0.720000000    -2.917000000     3.945000000
C    -1.093000000    -0.928000000     4.375000000
O     0.241000000    -0.758000000     4.686000000
C    -1.974000000     0.173000000     4.392000000
C    -1.659000000     1.506000000     5.047000000
H    -2.561000000     1.981000000     5.437000000
C    -0.900000000     2.486000000     4.110000000
C    -1.623000000     3.372000000     3.410000000
H    -2.688000000     3.576000000     3.486000000
H    -1.160000000     1.339000000     6.004000000
C    -3.179000000    -0.010000000     3.750000000
H    -3.900000000     0.804000000     3.766000000
C    -3.540000000    -1.265000000     3.277000000
C    -4.928000000    -1.447000000     2.592000000
H    -5.764000000    -0.948000000     3.086000000
H    -5.206000000    -2.494000000     2.728000000
C    -4.774000000    -1.079000000     1.065000000
C    -4.942000000     0.266000000     0.662000000
H    -5.208000000     1.012000000     1.407000000
C    -4.297000000    -2.028000000     0.145000000
C    -3.920000000    -1.661000000    -1.117000000
H    -3.559000000    -2.442000000    -1.781000000
C    -4.159000000    -0.376000000    -1.522000000
O    -3.744000000    -0.028000000    -2.818000000
C    -2.477000000     0.717000000    -3.002000000
C    -1.610000000     0.092000000    -4.113000000
C    -0.615000000     0.878000000    -4.644000000
H    -0.390000000     1.885000000    -4.301000000
C    -1.725000000    -1.248000000    -4.478000000
H    -2.545000000    -1.864000000    -4.117000000
O    -2.800000000     2.059000000    -3.206000000
H    -1.821000000     0.630000000    -2.124000000
C    -4.614000000     0.636000000    -0.647000000
C    -4.881000000     2.055000000    -1.153000000
H    -5.552000000     2.489000000    -0.407000000
H    -5.308000000     2.143000000    -2.154000000
C    -3.620000000     2.862000000    -1.055000000
C    -3.321000000     3.679000000     0.062000000
H    -3.936000000     3.735000000     0.957000000
C    -2.639000000     2.895000000    -2.129000000
C    -1.470000000     3.659000000    -2.091000000
H    -0.751000000     3.703000000    -2.905000000
C    -1.222000000     4.426000000    -0.927000000
O    -0.036000000     5.100000000    -0.873000000
C     0.954000000     4.319000000    -0.140000000
C     2.290000000     4.286000000    -0.832000000
C     2.339000000     4.595000000    -2.204000000
H     1.457000000     4.753000000    -2.820000000
C     3.544000000     4.114000000    -0.237000000
H     3.539000000     3.963000000     0.839000000
O     1.019000000     4.768000000     1.200000000
H     0.631000000     3.267000000    -0.127000000
C    -2.110000000     4.404000000     0.111000000
C    -1.836000000     5.076000000     1.460000000
H    -2.815000000     5.261000000     1.908000000
H    -1.318000000     6.023000000     1.296000000
C    -1.026000000     4.160000000     2.405000000
C     0.342000000     4.042000000     2.185000000
C     1.036000000     3.070000000     2.790000000
H     2.113000000     3.046000000     2.645000000
C     0.459000000     2.344000000     3.854000000
O     1.217000000     1.355000000     4.468000000
C     1.121000000     0.053000000     3.850000000
H     0.696000000     0.333000000     2.875000000
C     2.442000000    -0.535000000     3.672000000
C     2.591000000    -1.929000000     3.481000000
H     1.741000000    -2.567000000     3.708000000
C     3.564000000     0.180000000     3.338000000
H     3.409000000     1.255000000     3.298000000
C     4.744000000    -0.360000000     2.994000000
O     5.834000000     0.383000000     2.611000000
C     4.916000000    -1.737000000     2.834000000
H     5.902000000    -2.135000000     2.607000000
C     3.791000000    -2.548000000     3.035000000
O     3.969000000    -3.895000000     2.889000000
C     3.071000000    -4.858000000     3.283000000
C     2.348000000    -5.523000000     2.316000000
H     2.641000000    -5.395000000     1.278000000
C     2.970000000    -5.229000000     4.584000000
H     3.570000000    -4.687000000     5.310000000
C     2.028000000    -6.196000000     4.984000000
H     1.869000000    -6.500000000     6.015000000
C     1.279000000    -6.815000000     4.065000000
H     0.455000000    -7.495000000     4.263000000
C     1.428000000    -6.511000000     2.694000000
O     0.586000000    -7.137000000     1.729000000
C    -0.371000000    -6.421000000     0.921000000
C    -0.584000000    -6.902000000    -0.367000000
H     0.013000000    -7.758000000    -0.672000000
C    -1.496000000    -6.183000000    -1.198000000
O    -1.594000000    -6.556000000    -2.559000000
C    -2.044000000    -5.662000000    -3.549000000
C    -1.127000000    -4.852000000    -4.217000000
H    -0.100000000    -4.768000000    -3.871000000
C    -3.375000000    -5.795000000    -3.961000000
H    -4.012000000    -6.503000000    -3.437000000
C    -3.842000000    -5.127000000    -5.114000000
H    -4.875000000    -5.231000000    -5.437000000
C    -2.994000000    -4.233000000    -5.735000000
H    -3.469000000    -3.604000000    -6.483000000
C    -1.708000000    -4.008000000    -5.245000000
O    -1.001000000    -3.080000000    -5.901000000
C    -0.905000000    -1.785000000    -5.484000000
C     0.239000000    -1.086000000    -5.924000000
H     0.951000000    -1.481000000    -6.644000000
C     0.344000000     0.264000000    -5.471000000
O     1.408000000     1.007000000    -6.012000000
C     1.517000000     2.384000000    -5.923000000
C     2.606000000     3.000000000    -5.260000000
H     3.375000000     2.375000000    -4.814000000
C     0.459000000     3.226000000    -6.460000000
H    -0.363000000     2.805000000    -7.034000000
C     0.520000000     4.626000000    -6.330000000
H    -0.276000000     5.236000000    -6.749000000
C     1.462000000     5.125000000    -5.424000000
H     1.522000000     6.204000000    -5.313000000
C     2.539000000     4.338000000    -4.954000000
O     3.537000000     4.939000000    -4.268000000
C     3.555000000     4.685000000    -2.929000000
C     4.704000000     4.706000000    -2.214000000
H     5.660000000     4.756000000    -2.727000000
C     4.743000000     4.384000000    -0.879000000
O     5.957000000     4.255000000    -0.221000000
C     6.036000000     3.674000000     1.027000000
C     6.207000000     4.490000000     2.132000000
H     6.242000000     5.567000000     1.987000000
C     6.321000000     3.959000000     3.452000000
H     6.508000000     4.671000000     4.251000000
C     6.012000000     2.618000000     3.696000000
H     6.136000000     2.242000000     4.709000000
C     5.965000000     1.784000000     2.584000000
C     5.929000000     2.332000000     1.256000000
H     5.853000000     1.653000000     0.411000000
C     0.818000000    -1.104000000    -1.953000000
H     0.404000000    -1.797000000    -2.681000000
C    -0.014000000    -0.703000000    -0.870000000
H    -1.000000000    -1.151000000    -0.775000000
C     0.391000000     0.236000000     0.020000000
H    -0.378000000     0.623000000     0.706000000
C     1.689000000     0.732000000    -0.061000000
H     2.050000000     1.457000000     0.664000000
C     2.480000000     0.403000000    -1.180000000
H     3.500000000     0.775000000    -1.229000000
C     2.057000000    -0.506000000    -2.163000000
C     2.978000000    -0.846000000    -3.346000000
O     4.148000000    -0.604000000    -3.310000000
O     2.586000000    -1.730000000    -4.125000000
O     2.946000000    -2.130000000    -9.532000000
H     2.907000000    -2.244000000   -10.482000000
H     2.048000000    -2.281000000    -9.236000000
O     7.835000000    -4.360000000    -2.420000000
H     8.312000000    -3.546000000    -2.261000000
H     7.362000000    -4.206000000    -3.238000000
O     5.697000000     1.537000000    -3.028000000
H     6.514000000     1.039000000    -2.994000000
H     5.018000000     0.873000000    -3.149000000
O     5.125000000    -3.680000000    -8.558000000
H     5.356000000    -3.368000000    -7.683000000
H     4.413000000    -3.104000000    -8.837000000
O     7.716000000    -0.317000000    -2.353000000
H     8.265000000     0.336000000    -1.919000000
H     8.259000000    -1.105000000    -2.381000000
O     3.317000000    -3.346000000    -0.521000000
H     4.147000000    -3.647000000    -0.151000000
H     3.344000000    -2.394000000    -0.427000000
O     6.947000000     0.471000000    -8.450000000
H     6.025000000     0.526000000    -8.200000000
H     7.066000000     1.176000000    -9.087000000
O     5.032000000    -3.434000000    -3.335000000
H     4.153000000    -3.791000000    -3.206000000
H     4.894000000    -2.493000000    -3.443000000
O     5.966000000    -3.647000000    -0.420000000
H     6.508000000    -3.844000000    -1.184000000
H     5.901000000    -2.692000000    -0.413000000
O     5.515000000    -1.169000000    -1.140000000
H     6.352000000    -1.015000000    -1.577000000
H     4.857000000    -0.962000000    -1.803000000
O     6.827000000    -4.403000000    -4.981000000
H     6.945000000    -3.733000000    -5.655000000
H     6.109000000    -4.076000000    -4.440000000
O     8.388000000     2.946000000    -4.016000000
H     7.638000000     2.713000000    -3.469000000
H     8.826000000     3.648000000    -3.535000000
O     2.076000000    -4.154000000    -2.821000000
H     1.658000000    -3.319000000    -3.034000000
H     2.436000000    -4.024000000    -1.943000000
O     1.588000000    -7.202000000    -2.391000000
H     0.897000000    -6.646000000    -2.032000000
H     1.792000000    -6.812000000    -3.241000000
O     2.248000000    -5.618000000    -4.897000000
H     2.457000000    -5.034000000    -5.627000000
H     2.291000000    -5.057000000    -4.122000000
O     4.794000000    -0.255000000    -5.993000000
H     4.749000000    -0.279000000    -5.037000000
H     3.898000000    -0.061000000    -6.270000000
O     6.561000000    -2.218000000    -6.753000000
H     7.049000000    -2.111000000    -7.570000000
H     6.213000000    -1.346000000    -6.566000000
O     3.494000000    -3.237000000    -6.119000000
H     2.995000000    -2.728000000    -5.479000000
H     4.294000000    -2.730000000    -6.257000000
O     0.944000000    -4.893000000    -7.965000000
H     1.058000000    -4.402000000    -7.151000000
H     0.593000000    -5.739000000    -7.687000000
