215
-1453.67574
C    -2.424000000    -4.878000000    -0.748000000
H    -3.081000000    -4.220000000    -1.310000000
C    -1.947000000    -4.392000000     0.437000000
C    -0.960000000    -5.070000000     1.141000000
H    -0.463000000    -4.628000000     2.001000000
C    -2.500000000    -3.089000000     1.039000000
O    -3.900000000    -2.976000000     0.549000000
H    -1.944000000    -2.217000000     0.664000000
O    -2.514000000    -3.171000000     2.456000000
C    -2.339000000    -2.036000000     3.221000000
C    -1.072000000    -1.960000000     3.813000000
H    -0.368000000    -2.788000000     3.804000000
C    -0.659000000    -0.833000000     4.490000000
O     0.694000000    -0.859000000     4.763000000
C    -1.515000000     0.265000000     4.598000000
C    -0.970000000     1.474000000     5.304000000
H    -1.713000000     2.054000000     5.855000000
C    -0.326000000     2.409000000     4.298000000
C    -1.058000000     3.358000000     3.631000000
H    -2.104000000     3.609000000     3.784000000
H    -0.321000000     1.110000000     6.103000000
C    -2.830000000     0.135000000     4.132000000
H    -3.431000000     1.040000000     4.136000000
C    -3.217000000    -1.007000000     3.386000000
C    -4.613000000    -1.103000000     2.789000000
H    -5.404000000    -0.582000000     3.333000000
H    -4.854000000    -2.162000000     2.903000000
C    -4.643000000    -0.744000000     1.318000000
C    -4.833000000     0.561000000     0.968000000
H    -5.006000000     1.379000000     1.663000000
C    -4.389000000    -1.701000000     0.324000000
C    -4.109000000    -1.272000000    -1.011000000
H    -3.732000000    -1.979000000    -1.745000000
C    -4.423000000     0.038000000    -1.406000000
O    -4.112000000     0.480000000    -2.673000000
C    -2.821000000     1.149000000    -2.920000000
C    -2.192000000     0.586000000    -4.215000000
C    -1.493000000     1.341000000    -5.125000000
H    -1.359000000     2.402000000    -4.932000000
C    -2.262000000    -0.836000000    -4.508000000
H    -2.650000000    -1.498000000    -3.738000000
O    -3.031000000     2.549000000    -2.924000000
H    -2.172000000     0.818000000    -2.096000000
C    -4.776000000     0.992000000    -0.363000000
C    -4.822000000     2.579000000    -0.598000000
H    -5.452000000     2.998000000     0.190000000
H    -5.316000000     2.704000000    -1.564000000
C    -3.473000000     3.242000000    -0.572000000
C    -3.012000000     3.963000000     0.480000000
H    -3.675000000     4.009000000     1.341000000
C    -2.656000000     3.167000000    -1.757000000
C    -1.405000000     3.818000000    -1.774000000
H    -0.837000000     3.847000000    -2.700000000
C    -0.948000000     4.454000000    -0.676000000
O     0.321000000     4.953000000    -0.735000000
C     1.326000000     4.200000000    -0.060000000
C     2.529000000     4.083000000    -0.935000000
C     2.515000000     3.964000000    -2.294000000
H     1.520000000     3.908000000    -2.728000000
C     3.804000000     3.965000000    -0.324000000
H     3.921000000     4.030000000     0.755000000
O     1.538000000     4.675000000     1.306000000
H     1.030000000     3.150000000    -0.199000000
C    -1.728000000     4.527000000     0.489000000
C    -1.277000000     5.153000000     1.787000000
H    -2.145000000     5.515000000     2.343000000
H    -0.613000000     5.945000000     1.432000000
C    -0.445000000     4.118000000     2.579000000
C     0.901000000     4.012000000     2.315000000
C     1.610000000     3.062000000     3.037000000
H     2.589000000     2.795000000     2.645000000
C     1.025000000     2.267000000     4.027000000
O     1.762000000     1.161000000     4.533000000
C     1.555000000    -0.139000000     3.936000000
H     1.041000000    -0.071000000     2.967000000
C     2.886000000    -0.854000000     3.762000000
C     2.871000000    -2.275000000     3.749000000
H     2.019000000    -2.901000000     4.001000000
C     4.040000000    -0.121000000     3.511000000
H     3.998000000     0.963000000     3.453000000
C     5.205000000    -0.826000000     3.180000000
O     6.329000000    -0.190000000     2.927000000
C     5.132000000    -2.217000000     3.084000000
H     6.056000000    -2.747000000     2.869000000
C     4.005000000    -2.950000000     3.365000000
O     4.090000000    -4.312000000     3.302000000
C     2.944000000    -5.109000000     3.373000000
C     2.308000000    -5.544000000     2.177000000
H     2.707000000    -5.234000000     1.215000000
C     2.429000000    -5.456000000     4.563000000
H     2.900000000    -5.169000000     5.499000000
C     1.265000000    -6.219000000     4.625000000
H     0.906000000    -6.598000000     5.579000000
C     0.630000000    -6.747000000     3.488000000
H    -0.292000000    -7.313000000     3.601000000
C     1.214000000    -6.429000000     2.266000000
O     0.583000000    -6.926000000     1.124000000
C    -0.476000000    -6.271000000     0.619000000
C    -0.901000000    -6.787000000    -0.586000000
H    -0.560000000    -7.739000000    -0.985000000
C    -1.881000000    -6.026000000    -1.333000000
O    -2.149000000    -6.420000000    -2.661000000
C    -2.619000000    -5.539000000    -3.600000000
C    -1.846000000    -4.489000000    -4.139000000
H    -0.857000000    -4.239000000    -3.763000000
C    -3.899000000    -5.872000000    -4.051000000
H    -4.490000000    -6.671000000    -3.613000000
C    -4.391000000    -5.071000000    -5.135000000
H    -5.388000000    -5.224000000    -5.540000000
C    -3.680000000    -4.015000000    -5.663000000
H    -4.149000000    -3.471000000    -6.479000000
C    -2.441000000    -3.698000000    -5.099000000
O    -1.655000000    -2.744000000    -5.793000000
C    -1.719000000    -1.402000000    -5.643000000
C    -0.959000000    -0.607000000    -6.521000000
H    -0.465000000    -1.000000000    -7.406000000
C    -0.854000000     0.746000000    -6.251000000
O    -0.062000000     1.543000000    -6.986000000
C     0.514000000     2.702000000    -6.497000000
C     1.653000000     2.533000000    -5.673000000
H     2.077000000     1.560000000    -5.440000000
C    -0.029000000     3.980000000    -6.669000000
H    -0.878000000     4.069000000    -7.341000000
C     0.630000000     5.124000000    -6.144000000
H     0.285000000     6.136000000    -6.342000000
C     1.785000000     4.965000000    -5.407000000
H     2.430000000     5.801000000    -5.149000000
C     2.241000000     3.623000000    -5.113000000
O     3.409000000     3.430000000    -4.364000000
C     3.578000000     3.751000000    -3.062000000
C     4.804000000     3.535000000    -2.424000000
H     5.680000000     3.370000000    -3.046000000
C     4.935000000     3.641000000    -1.052000000
O     6.120000000     3.244000000    -0.484000000
C     6.292000000     2.871000000     0.832000000
C     6.430000000     3.854000000     1.837000000
H     6.422000000     4.885000000     1.492000000
C     6.538000000     3.535000000     3.225000000
H     6.678000000     4.312000000     3.972000000
C     6.551000000     2.163000000     3.545000000
H     6.641000000     1.806000000     4.568000000
C     6.450000000     1.184000000     2.581000000
C     6.350000000     1.530000000     1.201000000
H     6.284000000     0.785000000     0.413000000
C     0.991000000    -0.745000000    -2.435000000
H     0.633000000    -1.340000000    -3.272000000
C     0.226000000    -0.529000000    -1.349000000
H    -0.786000000    -0.922000000    -1.294000000
C     0.601000000     0.167000000    -0.217000000
H     0.011000000     0.213000000     0.649000000
C     1.958000000     0.568000000    -0.198000000
H     2.388000000     1.034000000     0.685000000
C     2.720000000     0.474000000    -1.380000000
H     3.744000000     0.837000000    -1.389000000
C     2.264000000    -0.095000000    -2.548000000
C     3.293000000    -0.419000000    -3.656000000
O     4.496000000    -0.594000000    -3.466000000
O     2.940000000    -0.475000000    -4.842000000
O     4.578000000    -5.826000000    -0.312000000
H     3.814000000    -5.530000000    -0.808000000
H     4.929000000    -5.029000000     0.085000000
O     1.835000000    -2.657000000    -9.012000000
H     1.985000000    -1.952000000    -8.383000000
H     1.161000000    -3.201000000    -8.606000000
O     7.674000000    -2.925000000    -2.492000000
H     8.553000000    -2.644000000    -2.235000000
H     7.087000000    -2.328000000    -2.027000000
O     5.001000000     1.014000000    -5.690000000
H     5.021000000     1.787000000    -5.126000000
H     4.465000000     0.382000000    -5.211000000
O     8.126000000    -2.783000000    -5.435000000
H     7.373000000    -2.207000000    -5.567000000
H     8.329000000    -2.703000000    -4.503000000
O     8.156000000     1.450000000    -1.962000000
H     8.589000000     1.877000000    -1.222000000
H     8.844000000     0.928000000    -2.374000000
O     0.510000000     0.486000000    -9.835000000
H     0.854000000     0.443000000    -8.943000000
H     0.519000000    -0.421000000   -10.139000000
O     2.186000000    -4.381000000    -1.850000000
H     2.829000000    -3.749000000    -1.528000000
H     2.251000000    -4.322000000    -2.804000000
O     5.069000000    -2.311000000    -5.320000000
H     5.009000000    -1.564000000    -4.726000000
H     4.768000000    -1.971000000    -6.163000000
O     6.624000000    -6.065000000    -2.576000000
H     6.584000000    -5.159000000    -2.882000000
H     7.440000000    -6.114000000    -2.078000000
O     4.527000000    -2.739000000    -0.130000000
H     5.010000000    -2.006000000    -0.512000000
H     4.770000000    -2.730000000     0.795000000
O     6.126000000    -0.749000000    -1.515000000
H     6.664000000     0.027000000    -1.671000000
H     5.422000000    -0.686000000    -2.160000000
O     4.199000000     1.028000000    -8.690000000
H     4.754000000     1.593000000    -9.227000000
H     4.374000000     1.303000000    -7.791000000
O     6.022000000    -4.962000000    -5.219000000
H     5.539000000    -4.140000000    -5.131000000
H     6.861000000    -4.794000000    -4.791000000
O     1.670000000    -5.492000000    -5.954000000
H     0.989000000    -5.284000000    -6.594000000
H     1.408000000    -5.018000000    -5.164000000
O     2.009000000    -0.460000000    -7.498000000
H     2.149000000    -0.389000000    -6.554000000
H     2.612000000     0.177000000    -7.879000000
O     4.950000000     3.935000000    -7.474000000
H     4.152000000     4.280000000    -7.875000000
H     4.979000000     4.346000000    -6.609000000
O     4.926000000    -2.078000000    -8.159000000
H     5.849000000    -2.168000000    -8.397000000
H     4.586000000    -1.421000000    -8.767000000
O     1.767000000    -3.142000000    -4.357000000
H     2.630000000    -2.736000000    -4.442000000
H     1.156000000    -2.470000000    -4.660000000
