215
-1449.38775
C    -2.209000000    -4.538000000    -1.563000000
H    -3.100000000    -4.087000000    -1.991000000
C    -1.763000000    -4.233000000    -0.289000000
C    -0.563000000    -4.767000000     0.183000000
H    -0.265000000    -4.616000000     1.217000000
C    -2.556000000    -3.369000000     0.635000000
O    -3.920000000    -3.161000000     0.121000000
H    -2.087000000    -2.379000000     0.538000000
O    -2.568000000    -3.813000000     2.010000000
C    -2.386000000    -2.702000000     2.879000000
C    -1.146000000    -2.492000000     3.366000000
H    -0.399000000    -3.251000000     3.150000000
C    -0.864000000    -1.371000000     4.126000000
O     0.427000000    -1.361000000     4.655000000
C    -1.791000000    -0.390000000     4.481000000
C    -1.434000000     0.841000000     5.392000000
H    -2.271000000     1.407000000     5.806000000
C    -0.697000000     1.805000000     4.468000000
C    -1.419000000     2.908000000     3.896000000
H    -2.476000000     3.058000000     4.102000000
H    -0.764000000     0.568000000     6.210000000
C    -2.969000000    -0.534000000     3.791000000
H    -3.776000000     0.146000000     4.052000000
C    -3.299000000    -1.646000000     3.079000000
C    -4.698000000    -1.676000000     2.546000000
H    -5.425000000    -1.227000000     3.226000000
H    -5.014000000    -2.720000000     2.494000000
C    -4.743000000    -1.031000000     1.154000000
C    -4.901000000     0.400000000     1.065000000
H    -5.188000000     1.001000000     1.924000000
C    -4.409000000    -1.850000000     0.026000000
C    -4.291000000    -1.258000000    -1.239000000
H    -4.065000000    -1.927000000    -2.066000000
C    -4.497000000     0.086000000    -1.327000000
O    -4.298000000     0.656000000    -2.570000000
C    -3.021000000     1.341000000    -2.804000000
C    -2.392000000     0.967000000    -4.154000000
C    -1.311000000     1.649000000    -4.624000000
H    -0.919000000     2.533000000    -4.128000000
C    -2.880000000    -0.159000000    -4.823000000
H    -3.648000000    -0.828000000    -4.444000000
O    -3.114000000     2.779000000    -2.768000000
H    -2.345000000     1.009000000    -2.002000000
C    -4.820000000     0.907000000    -0.263000000
C    -4.943000000     2.459000000    -0.397000000
H    -5.492000000     2.897000000     0.440000000
H    -5.441000000     2.644000000    -1.351000000
C    -3.668000000     3.179000000    -0.428000000
C    -3.344000000     3.826000000     0.779000000
H    -4.106000000     3.894000000     1.551000000
C    -2.838000000     3.348000000    -1.528000000
C    -1.659000000     4.049000000    -1.374000000
H    -0.919000000     4.060000000    -2.170000000
C    -1.297000000     4.517000000    -0.138000000
O     0.009000000     5.020000000    -0.081000000
C     1.000000000     4.120000000     0.580000000
C     2.368000000     4.149000000    -0.151000000
C     2.458000000     4.313000000    -1.504000000
H     1.590000000     4.406000000    -2.151000000
C     3.546000000     3.936000000     0.562000000
H     3.556000000     3.890000000     1.648000000
O     1.209000000     4.444000000     1.928000000
H     0.610000000     3.092000000     0.549000000
C    -2.087000000     4.341000000     0.994000000
C    -1.613000000     4.841000000     2.375000000
H    -2.483000000     5.065000000     2.997000000
H    -1.112000000     5.812000000     2.381000000
C    -0.749000000     3.826000000     3.104000000
C     0.600000000     3.722000000     2.866000000
C     1.368000000     2.665000000     3.456000000
H     2.430000000     2.524000000     3.268000000
C     0.722000000     1.724000000     4.275000000
O     1.510000000     0.700000000     4.795000000
C     1.378000000    -0.499000000     4.079000000
H     1.111000000    -0.144000000     3.073000000
C     2.707000000    -1.213000000     3.853000000
C     2.826000000    -2.577000000     3.897000000
H     1.966000000    -3.162000000     4.210000000
C     3.883000000    -0.438000000     3.602000000
H     3.782000000     0.642000000     3.683000000
C     5.032000000    -1.090000000     3.090000000
O     6.232000000    -0.466000000     2.837000000
C     5.099000000    -2.463000000     3.031000000
H     6.028000000    -2.911000000     2.687000000
C     4.035000000    -3.234000000     3.615000000
O     4.054000000    -4.604000000     3.612000000
C     3.206000000    -5.502000000     2.954000000
C     2.737000000    -5.139000000     1.685000000
H     3.059000000    -4.174000000     1.301000000
C     2.917000000    -6.725000000     3.508000000
H     3.336000000    -7.039000000     4.461000000
C     2.156000000    -7.641000000     2.759000000
H     1.928000000    -8.608000000     3.200000000
C     1.592000000    -7.281000000     1.469000000
H     1.047000000    -7.962000000     0.821000000
C     1.925000000    -6.026000000     0.982000000
O     1.563000000    -5.618000000    -0.286000000
C     0.311000000    -5.360000000    -0.737000000
C    -0.173000000    -5.633000000    -1.965000000
H     0.468000000    -6.211000000    -2.625000000
C    -1.414000000    -5.294000000    -2.446000000
O    -1.721000000    -5.495000000    -3.804000000
C    -2.623000000    -4.679000000    -4.468000000
C    -2.244000000    -3.522000000    -5.217000000
H    -1.202000000    -3.210000000    -5.226000000
C    -3.964000000    -5.078000000    -4.534000000
H    -4.299000000    -6.001000000    -4.067000000
C    -4.905000000    -4.295000000    -5.264000000
H    -5.907000000    -4.716000000    -5.262000000
C    -4.461000000    -3.162000000    -5.967000000
H    -5.092000000    -2.530000000    -6.586000000
C    -3.154000000    -2.766000000    -5.982000000
O    -2.673000000    -1.698000000    -6.662000000
C    -2.268000000    -0.532000000    -6.028000000
C    -1.051000000     0.047000000    -6.410000000
H    -0.532000000    -0.278000000    -7.309000000
C    -0.599000000     1.141000000    -5.704000000
O     0.615000000     1.689000000    -6.037000000
C     1.164000000     2.903000000    -5.722000000
C     2.203000000     2.953000000    -4.776000000
H     2.709000000     2.064000000    -4.409000000
C     0.582000000     4.112000000    -6.135000000
H    -0.306000000     4.072000000    -6.760000000
C     1.074000000     5.327000000    -5.779000000
H     0.594000000     6.245000000    -6.106000000
C     2.189000000     5.352000000    -4.946000000
H     2.500000000     6.333000000    -4.594000000
C     2.677000000     4.237000000    -4.361000000
O     3.738000000     4.397000000    -3.519000000
C     3.698000000     4.227000000    -2.166000000
C     4.898000000     4.063000000    -1.471000000
H     5.866000000     4.048000000    -1.966000000
C     4.841000000     3.877000000    -0.126000000
O     6.039000000     3.823000000     0.620000000
C     6.323000000     2.962000000     1.614000000
C     6.851000000     3.575000000     2.768000000
H     7.098000000     4.633000000     2.739000000
C     7.204000000     2.879000000     3.936000000
H     7.716000000     3.374000000     4.757000000
C     6.991000000     1.500000000     3.937000000
H     7.301000000     0.825000000     4.731000000
C     6.428000000     0.886000000     2.793000000
C     6.114000000     1.601000000     1.623000000
H     5.883000000     1.097000000     0.688000000
C     0.703000000    -0.741000000    -1.829000000
H     0.649000000    -1.211000000    -2.808000000
C    -0.411000000    -0.565000000    -1.038000000
H    -1.415000000    -0.870000000    -1.323000000
C    -0.214000000     0.007000000     0.165000000
H    -1.098000000     0.120000000     0.859000000
C     1.086000000     0.514000000     0.622000000
H     1.191000000     1.064000000     1.554000000
C     2.238000000     0.345000000    -0.188000000
H     3.214000000     0.703000000     0.129000000
C     1.986000000    -0.301000000    -1.442000000
C     3.175000000    -0.551000000    -2.391000000
O     4.250000000    -0.137000000    -2.092000000
O     3.042000000    -1.029000000    -3.535000000
O     6.725000000    -4.912000000    -0.920000000
H     7.043000000    -4.122000000    -1.355000000
H     5.811000000    -4.720000000    -0.712000000
O     4.118000000    -4.066000000    -6.748000000
H     4.214000000    -3.650000000    -7.605000000
H     4.399000000    -3.396000000    -6.125000000
O     7.573000000     4.359000000    -4.417000000
H     7.556000000     4.749000000    -3.543000000
H     7.909000000     3.474000000    -4.279000000
O     9.021000000     1.967000000    -0.318000000
H     8.433000000     1.290000000    -0.654000000
H     9.700000000     1.483000000     0.152000000
O     2.782000000     0.156000000    -7.766000000
H     3.326000000     0.632000000    -7.138000000
H     2.005000000    -0.095000000    -7.267000000
O     3.564000000    -5.742000000    -3.621000000
H     3.790000000    -5.943000000    -4.529000000
H     3.219000000    -4.849000000    -3.651000000
O     4.923000000    -2.285000000    -4.853000000
H     5.378000000    -1.576000000    -5.307000000
H     4.358000000    -1.841000000    -4.221000000
O     4.187000000    -3.412000000    -0.764000000
H     4.010000000    -2.481000000    -0.896000000
H     3.464000000    -3.858000000    -1.206000000
O     6.741000000    -0.398000000    -1.023000000
H     6.916000000    -1.254000000    -1.415000000
H     5.807000000    -0.252000000    -1.175000000
O     7.482000000    -2.038000000    -6.779000000
H     7.157000000    -1.423000000    -7.437000000
H     7.474000000    -2.887000000    -7.221000000
O     7.039000000    -4.819000000    -4.664000000
H     6.320000000    -4.462000000    -4.143000000
H     7.769000000    -4.222000000    -4.505000000
O     2.225000000    -3.501000000    -3.112000000
H     1.429000000    -3.536000000    -3.644000000
H     2.486000000    -2.580000000    -3.132000000
O     4.139000000    -7.140000000    -1.239000000
H     3.386000000    -7.730000000    -1.268000000
H     4.080000000    -6.635000000    -2.049000000
O     7.310000000    -2.507000000    -2.580000000
H     8.218000000    -2.599000000    -2.869000000
H     6.840000000    -2.210000000    -3.359000000
O     0.500000000    -2.853000000    -8.062000000
H     1.033000000    -2.775000000    -7.271000000
H    -0.036000000    -3.633000000    -7.914000000
O     5.720000000     0.676000000    -4.147000000
H     5.277000000     0.513000000    -3.314000000
H     6.652000000     0.627000000    -3.935000000
O     8.872000000    -0.667000000    -4.893000000
H     9.471000000    -1.380000000    -4.671000000
H     8.284000000    -1.044000000    -5.548000000
O     1.949000000    -1.731000000    -5.748000000
H     2.101000000    -1.200000000    -4.966000000
H     2.780000000    -2.183000000    -5.895000000
O     4.967000000     1.960000000    -6.524000000
H     4.835000000     2.893000000    -6.353000000
H     5.465000000     1.647000000    -5.770000000
