215
-1473.68527
C    -2.496000000    -4.680000000    -1.217000000
H    -3.420000000    -4.204000000    -1.535000000
C    -1.952000000    -4.181000000    -0.093000000
C    -0.754000000    -4.649000000     0.330000000
H    -0.222000000    -4.157000000     1.140000000
C    -2.588000000    -3.011000000     0.677000000
O    -3.987000000    -2.775000000     0.305000000
H    -2.007000000    -2.124000000     0.385000000
O    -2.534000000    -3.278000000     2.084000000
C    -2.246000000    -2.285000000     2.907000000
C    -0.977000000    -2.257000000     3.538000000
H    -0.274000000    -2.998000000     3.166000000
C    -0.636000000    -1.108000000     4.269000000
O     0.662000000    -1.056000000     4.662000000
C    -1.553000000    -0.101000000     4.483000000
C    -1.120000000     1.129000000     5.270000000
H    -2.040000000     1.584000000     5.642000000
C    -0.440000000     2.137000000     4.334000000
C    -1.233000000     3.184000000     3.818000000
H    -2.297000000     3.154000000     4.039000000
H    -0.465000000     0.930000000     6.121000000
C    -2.837000000    -0.211000000     3.958000000
H    -3.515000000     0.616000000     4.155000000
C    -3.226000000    -1.265000000     3.157000000
C    -4.677000000    -1.260000000     2.584000000
H    -5.332000000    -0.691000000     3.247000000
H    -5.081000000    -2.273000000     2.620000000
C    -4.654000000    -0.613000000     1.164000000
C    -4.893000000     0.721000000     0.945000000
H    -5.027000000     1.418000000     1.769000000
C    -4.363000000    -1.449000000     0.054000000
C    -4.483000000    -1.002000000    -1.246000000
H    -4.304000000    -1.614000000    -2.126000000
C    -4.632000000     0.404000000    -1.420000000
O    -4.415000000     0.902000000    -2.648000000
C    -3.092000000     1.248000000    -2.901000000
C    -2.382000000     0.660000000    -4.069000000
C    -1.222000000     1.177000000    -4.528000000
H    -0.725000000     2.027000000    -4.069000000
C    -2.940000000    -0.471000000    -4.663000000
H    -3.831000000    -0.888000000    -4.200000000
O    -3.023000000     2.691000000    -2.910000000
H    -2.533000000     0.938000000    -2.006000000
C    -4.851000000     1.223000000    -0.387000000
C    -4.913000000     2.747000000    -0.660000000
H    -5.586000000     3.243000000     0.042000000
H    -5.337000000     2.938000000    -1.648000000
C    -3.516000000     3.295000000    -0.609000000
C    -3.128000000     3.914000000     0.587000000
H    -3.814000000     3.964000000     1.429000000
C    -2.721000000     3.367000000    -1.742000000
C    -1.510000000     4.082000000    -1.662000000
H    -0.752000000     4.053000000    -2.440000000
C    -1.006000000     4.572000000    -0.410000000
O     0.278000000     5.041000000    -0.393000000
C     1.256000000     4.268000000     0.358000000
C     2.551000000     4.065000000    -0.435000000
C     2.506000000     3.848000000    -1.816000000
H     1.539000000     3.775000000    -2.307000000
C     3.833000000     4.078000000     0.244000000
H     3.826000000     4.361000000     1.293000000
O     1.407000000     4.753000000     1.702000000
H     0.712000000     3.315000000     0.428000000
C    -1.855000000     4.503000000     0.706000000
C    -1.437000000     4.938000000     2.094000000
H    -2.336000000     5.130000000     2.683000000
H    -0.955000000     5.918000000     2.075000000
C    -0.596000000     4.006000000     2.926000000
C     0.819000000     3.965000000     2.719000000
C     1.540000000     3.022000000     3.382000000
H     2.626000000     3.073000000     3.394000000
C     0.902000000     2.042000000     4.132000000
O     1.705000000     0.999000000     4.624000000
C     1.559000000    -0.206000000     3.917000000
H     1.110000000    -0.113000000     2.917000000
C     2.854000000    -0.916000000     3.764000000
C     2.900000000    -2.307000000     3.639000000
H     1.953000000    -2.792000000     3.859000000
C     4.067000000    -0.250000000     3.595000000
H     4.062000000     0.832000000     3.698000000
C     5.249000000    -0.929000000     3.264000000
O     6.423000000    -0.273000000     2.993000000
C     5.293000000    -2.295000000     3.171000000
H     6.248000000    -2.788000000     3.009000000
C     4.127000000    -3.012000000     3.427000000
O     4.223000000    -4.395000000     3.358000000
C     3.213000000    -5.235000000     2.918000000
C     2.762000000    -5.231000000     1.596000000
H     3.125000000    -4.617000000     0.776000000
C     2.613000000    -6.068000000     3.866000000
H     3.016000000    -6.071000000     4.875000000
C     1.644000000    -6.946000000     3.497000000
H     1.331000000    -7.591000000     4.314000000
C     1.190000000    -6.979000000     2.170000000
H     0.342000000    -7.619000000     1.941000000
C     1.762000000    -6.091000000     1.237000000
O     1.181000000    -6.000000000    -0.031000000
C    -0.111000000    -5.673000000    -0.352000000
C    -0.585000000    -6.083000000    -1.604000000
H    -0.040000000    -6.849000000    -2.150000000
C    -1.863000000    -5.644000000    -2.031000000
O    -2.352000000    -5.933000000    -3.298000000
C    -3.122000000    -5.116000000    -4.032000000
C    -2.699000000    -3.935000000    -4.619000000
H    -1.780000000    -3.535000000    -4.197000000
C    -4.431000000    -5.488000000    -4.236000000
H    -4.914000000    -6.337000000    -3.759000000
C    -5.194000000    -4.765000000    -5.150000000
H    -6.251000000    -5.017000000    -5.118000000
C    -4.691000000    -3.783000000    -5.935000000
H    -5.312000000    -3.371000000    -6.726000000
C    -3.376000000    -3.319000000    -5.680000000
O    -2.929000000    -2.217000000    -6.330000000
C    -2.291000000    -1.160000000    -5.628000000
C    -1.115000000    -0.660000000    -6.093000000
H    -0.427000000    -1.158000000    -6.771000000
C    -0.639000000     0.529000000    -5.581000000
O     0.521000000     1.020000000    -6.206000000
C     1.002000000     2.244000000    -5.846000000
C     2.091000000     2.201000000    -4.970000000
H     2.615000000     1.295000000    -4.676000000
C     0.416000000     3.454000000    -6.274000000
H    -0.437000000     3.485000000    -6.946000000
C     1.003000000     4.669000000    -5.874000000
H     0.600000000     5.585000000    -6.296000000
C     2.136000000     4.660000000    -5.042000000
H     2.504000000     5.633000000    -4.726000000
C     2.701000000     3.429000000    -4.661000000
O     3.812000000     3.400000000    -3.858000000
C     3.727000000     3.556000000    -2.490000000
C     4.981000000     3.468000000    -1.804000000
H     5.984000000     3.358000000    -2.209000000
C     4.984000000     3.766000000    -0.447000000
O     6.234000000     3.674000000     0.231000000
C     6.565000000     3.104000000     1.451000000
C     7.122000000     3.847000000     2.476000000
H     7.341000000     4.910000000     2.413000000
C     7.420000000     3.162000000     3.647000000
H     7.884000000     3.652000000     4.500000000
C     7.149000000     1.800000000     3.811000000
H     7.416000000     1.274000000     4.724000000
C     6.614000000     1.089000000     2.767000000
C     6.251000000     1.740000000     1.594000000
H     5.777000000     1.183000000     0.790000000
C     0.651000000    -0.659000000    -1.934000000
H     0.449000000    -1.183000000    -2.865000000
C    -0.297000000    -0.241000000    -1.076000000
H    -1.303000000    -0.650000000    -1.135000000
C     0.126000000     0.470000000     0.060000000
H    -0.675000000     0.671000000     0.805000000
C     1.461000000     0.716000000     0.258000000
H     1.786000000     1.207000000     1.171000000
C     2.456000000     0.290000000    -0.678000000
H     3.529000000     0.404000000    -0.552000000
C     2.023000000    -0.363000000    -1.769000000
C     2.949000000    -0.836000000    -2.868000000
O     4.120000000    -0.530000000    -2.957000000
O     2.620000000    -1.656000000    -3.703000000
O     7.052000000    -4.015000000    -1.623000000
H     7.291000000    -3.607000000    -2.455000000
H     6.241000000    -3.577000000    -1.366000000
O     3.706000000    -4.423000000    -7.039000000
H     3.504000000    -3.800000000    -7.737000000
H     4.429000000    -4.018000000    -6.559000000
O     9.488000000    -0.021000000    -3.599000000
H     9.448000000     0.006000000    -4.555000000
H     8.965000000     0.729000000    -3.316000000
O     6.309000000     3.382000000    -4.935000000
H     5.475000000     3.034000000    -4.619000000
H     6.095000000     4.256000000    -5.261000000
O     8.961000000     1.034000000    -0.389000000
H     8.045000000     0.803000000    -0.541000000
H     9.458000000     0.341000000    -0.824000000
O     2.803000000    -2.512000000    -8.752000000
H     2.805000000    -1.654000000    -8.328000000
H     2.033000000    -2.496000000    -9.320000000
O     3.146000000    -6.280000000    -3.862000000
H     3.998000000    -6.105000000    -3.462000000
H     2.610000000    -5.523000000    -3.625000000
O     4.618000000    -2.417000000    -5.332000000
H     5.039000000    -1.655000000    -5.729000000
H     3.943000000    -2.048000000    -4.762000000
O     4.646000000    -2.863000000    -1.740000000
H     4.543000000    -2.124000000    -2.340000000
H     3.887000000    -3.420000000    -1.913000000
O     6.325000000    -0.036000000    -1.426000000
H     6.564000000    -0.786000000    -1.972000000
H     5.450000000     0.209000000    -1.726000000
O     2.124000000    -4.015000000    -2.511000000
H     1.262000000    -4.065000000    -2.097000000
H     2.154000000    -3.139000000    -2.895000000
O     6.580000000    -4.997000000     1.322000000
H     7.506000000    -4.953000000     1.082000000
H     6.135000000    -4.476000000     0.653000000
O     7.005000000    -3.103000000    -4.320000000
H     7.617000000    -2.615000000    -4.872000000
H     6.140000000    -2.798000000    -4.594000000
O    -0.192000000    -4.018000000    -7.685000000
H     0.361000000    -3.737000000    -6.956000000
H    -0.624000000    -4.810000000    -7.365000000
O     5.113000000     0.371000000    -5.078000000
H     4.839000000    -0.028000000    -4.252000000
H     5.901000000     0.867000000    -4.855000000
O     5.802000000    -6.448000000    -2.148000000
H     6.228000000    -6.776000000    -1.356000000
H     6.214000000    -5.599000000    -2.308000000
O     7.180000000    -1.357000000    -6.729000000
H     7.033000000    -0.608000000    -7.307000000
H     6.912000000    -2.115000000    -7.247000000
O     1.531000000    -3.057000000    -5.895000000
H     1.843000000    -2.516000000    -5.170000000
H     2.315000000    -3.503000000    -6.216000000
O     3.091000000    -0.139000000    -7.270000000
H     2.176000000     0.011000000    -7.036000000
H     3.590000000     0.269000000    -6.562000000
