215
-1461.66273
C    -3.232000000    -4.770000000    -0.947000000
H    -4.086000000    -4.200000000    -1.306000000
C    -2.666000000    -4.361000000     0.240000000
C    -1.728000000    -5.173000000     0.865000000
H    -1.256000000    -4.847000000     1.789000000
C    -3.213000000    -3.074000000     0.907000000
O    -4.596000000    -2.711000000     0.420000000
H    -2.499000000    -2.309000000     0.567000000
O    -3.152000000    -3.114000000     2.362000000
C    -2.818000000    -2.012000000     3.068000000
C    -1.488000000    -2.069000000     3.521000000
H    -0.866000000    -2.956000000     3.439000000
C    -0.996000000    -0.997000000     4.235000000
O     0.359000000    -1.060000000     4.633000000
C    -1.779000000     0.157000000     4.522000000
C    -1.290000000     1.374000000     5.294000000
H    -2.131000000     1.894000000     5.757000000
C    -0.430000000     2.361000000     4.496000000
C    -1.015000000     3.449000000     3.839000000
H    -2.063000000     3.732000000     3.896000000
H    -0.659000000     0.974000000     6.090000000
C    -3.082000000     0.268000000     4.009000000
H    -3.766000000     1.097000000     4.173000000
C    -3.583000000    -0.793000000     3.199000000
C    -4.957000000    -0.758000000     2.563000000
H    -5.629000000    -0.044000000     3.044000000
H    -5.415000000    -1.744000000     2.666000000
C    -4.869000000    -0.357000000     1.143000000
C    -5.072000000     0.937000000     0.782000000
H    -5.448000000     1.618000000     1.542000000
C    -4.725000000    -1.355000000     0.149000000
C    -4.566000000    -0.965000000    -1.217000000
H    -4.399000000    -1.687000000    -2.012000000
C    -4.601000000     0.393000000    -1.544000000
O    -4.129000000     0.730000000    -2.813000000
C    -2.753000000     1.143000000    -2.908000000
C    -2.068000000     0.613000000    -4.237000000
C    -1.314000000     1.461000000    -5.087000000
H    -1.280000000     2.523000000    -4.858000000
C    -2.075000000    -0.730000000    -4.485000000
H    -2.744000000    -1.373000000    -3.919000000
O    -2.753000000     2.551000000    -2.895000000
H    -2.234000000     0.742000000    -2.025000000
C    -4.911000000     1.341000000    -0.522000000
C    -4.741000000     2.846000000    -0.771000000
H    -5.387000000     3.489000000    -0.170000000
H    -5.012000000     3.097000000    -1.798000000
C    -3.297000000     3.278000000    -0.646000000
C    -2.911000000     3.881000000     0.550000000
H    -3.669000000     4.061000000     1.308000000
C    -2.430000000     3.121000000    -1.724000000
C    -1.174000000     3.592000000    -1.613000000
H    -0.499000000     3.430000000    -2.449000000
C    -0.712000000     4.144000000    -0.437000000
O     0.562000000     4.499000000    -0.367000000
C     1.531000000     3.727000000     0.343000000
C     2.882000000     3.661000000    -0.345000000
C     2.924000000     3.377000000    -1.689000000
H     1.952000000     3.377000000    -2.174000000
C     4.115000000     3.620000000     0.327000000
H     4.019000000     3.760000000     1.401000000
O     1.651000000     4.408000000     1.610000000
H     1.115000000     2.713000000     0.442000000
C    -1.570000000     4.289000000     0.671000000
C    -1.123000000     5.080000000     1.936000000
H    -2.005000000     5.535000000     2.391000000
H    -0.608000000     5.984000000     1.606000000
C    -0.328000000     4.161000000     2.894000000
C     1.054000000     3.863000000     2.674000000
C     1.636000000     2.786000000     3.361000000
H     2.651000000     2.538000000     3.061000000
C     0.931000000     2.092000000     4.305000000
O     1.582000000     0.996000000     4.721000000
C     1.354000000    -0.185000000     3.949000000
H     1.065000000     0.019000000     2.907000000
C     2.653000000    -0.953000000     3.611000000
C     2.579000000    -2.154000000     3.033000000
H     1.567000000    -2.519000000     2.882000000
C     3.901000000    -0.364000000     3.761000000
H     3.956000000     0.609000000     4.243000000
C     5.068000000    -1.000000000     3.257000000
O     6.258000000    -0.410000000     3.411000000
C     4.980000000    -2.267000000     2.730000000
H     5.890000000    -2.821000000     2.511000000
C     3.741000000    -2.827000000     2.557000000
O     3.551000000    -3.993000000     1.745000000
C     2.660000000    -4.997000000     2.111000000
C     1.809000000    -5.551000000     1.159000000
H     1.862000000    -5.360000000     0.090000000
C     2.454000000    -5.305000000     3.458000000
H     3.227000000    -4.901000000     4.106000000
C     1.432000000    -6.165000000     3.850000000
H     1.256000000    -6.406000000     4.895000000
C     0.529000000    -6.627000000     2.884000000
H    -0.283000000    -7.281000000     3.190000000
C     0.748000000    -6.399000000     1.551000000
O    -0.104000000    -6.980000000     0.625000000
C    -1.221000000    -6.287000000     0.140000000
C    -1.712000000    -6.596000000    -1.126000000
H    -1.298000000    -7.454000000    -1.649000000
C    -2.740000000    -5.861000000    -1.635000000
O    -3.162000000    -6.136000000    -2.882000000
C    -3.197000000    -5.181000000    -3.843000000
C    -2.071000000    -4.405000000    -4.112000000
H    -1.196000000    -4.393000000    -3.467000000
C    -4.325000000    -5.106000000    -4.690000000
H    -5.167000000    -5.761000000    -4.480000000
C    -4.343000000    -4.294000000    -5.800000000
H    -5.241000000    -4.239000000    -6.410000000
C    -3.250000000    -3.509000000    -6.068000000
H    -3.289000000    -2.877000000    -6.952000000
C    -2.142000000    -3.562000000    -5.249000000
O    -1.189000000    -2.649000000    -5.607000000
C    -1.317000000    -1.270000000    -5.523000000
C    -0.459000000    -0.464000000    -6.271000000
H     0.297000000    -0.857000000    -6.947000000
C    -0.494000000     0.946000000    -6.124000000
O     0.334000000     1.813000000    -6.812000000
C     1.195000000     2.650000000    -6.158000000
C     2.279000000     2.238000000    -5.386000000
H     2.535000000     1.185000000    -5.309000000
C     0.911000000     4.052000000    -6.267000000
H     0.192000000     4.377000000    -7.016000000
C     1.800000000     4.963000000    -5.642000000
H     1.728000000     6.041000000    -5.765000000
C     2.822000000     4.564000000    -4.836000000
H     3.510000000     5.287000000    -4.404000000
C     2.999000000     3.166000000    -4.645000000
O     4.045000000     2.809000000    -3.770000000
C     4.084000000     3.129000000    -2.397000000
C     5.251000000     3.091000000    -1.690000000
H     6.196000000     2.942000000    -2.206000000
C     5.341000000     3.426000000    -0.332000000
O     6.522000000     3.240000000     0.305000000
C     6.648000000     2.751000000     1.604000000
C     7.085000000     3.622000000     2.556000000
H     7.120000000     4.676000000     2.292000000
C     7.200000000     3.166000000     3.896000000
H     7.605000000     3.889000000     4.600000000
C     6.932000000     1.811000000     4.222000000
H     6.924000000     1.527000000     5.271000000
C     6.533000000     0.932000000     3.191000000
C     6.473000000     1.383000000     1.894000000
H     5.989000000     0.713000000     1.187000000
C     0.926000000    -1.764000000    -1.460000000
H     0.526000000    -2.679000000    -1.890000000
C     0.136000000    -0.965000000    -0.645000000
H    -0.863000000    -1.272000000    -0.346000000
C     0.787000000     0.035000000     0.069000000
H     0.251000000     0.610000000     0.831000000
C     2.190000000     0.198000000     0.030000000
H     2.674000000     0.904000000     0.699000000
C     2.938000000    -0.559000000    -0.788000000
H     4.020000000    -0.455000000    -0.745000000
C     2.330000000    -1.592000000    -1.517000000
C     3.266000000    -2.572000000    -2.185000000
O     4.472000000    -2.406000000    -2.165000000
O     2.734000000    -3.428000000    -2.860000000
O     7.149000000    -7.172000000    -0.905000000
H     7.284000000    -6.445000000    -0.297000000
H     6.354000000    -6.940000000    -1.384000000
O     4.807000000    -6.333000000    -1.881000000
H     3.941000000    -6.739000000    -1.924000000
H     4.935000000    -5.951000000    -2.749000000
O     3.873000000    -0.911000000    -6.447000000
H     3.252000000    -1.413000000    -5.919000000
H     3.898000000    -1.369000000    -7.287000000
O     6.549000000    -5.642000000    -7.155000000
H     6.092000000    -4.980000000    -6.635000000
H     7.464000000    -5.360000000    -7.151000000
O     1.572000000    -5.240000000    -6.078000000
H     1.921000000    -6.082000000    -5.786000000
H     1.099000000    -4.900000000    -5.318000000
O     4.151000000    -5.232000000    -4.258000000
H     3.601000000    -4.759000000    -3.633000000
H     4.495000000    -4.552000000    -4.837000000
O     6.464000000    -5.437000000     3.066000000
H     6.133000000    -5.120000000     2.226000000
H     6.600000000    -4.644000000     3.584000000
O     5.744000000    -0.022000000    -2.872000000
H     5.261000000    -0.810000000    -2.624000000
H     5.131000000     0.695000000    -2.709000000
O     3.853000000    -7.210000000    -6.169000000
H     4.532000000    -7.358000000    -6.828000000
H     3.963000000    -6.294000000    -5.913000000
O     7.997000000    -1.164000000    -4.535000000
H     7.476000000    -1.653000000    -3.898000000
H     8.194000000    -1.800000000    -5.223000000
O     5.384000000    -3.441000000    -5.876000000
H     6.003000000    -3.333000000    -5.153000000
H     4.693000000    -2.803000000    -5.696000000
O     2.470000000    -7.827000000    -1.951000000
H     1.850000000    -8.030000000    -2.651000000
H     2.480000000    -8.612000000    -1.405000000
O     7.959000000     1.998000000    -3.600000000
H     7.214000000     1.486000000    -3.914000000
H     8.228000000     1.560000000    -2.792000000
O     1.235000000    -5.463000000    -3.224000000
H     1.804000000    -4.701000000    -3.118000000
H     1.503000000    -6.062000000    -2.527000000
O     6.666000000    -1.767000000    -0.536000000
H     6.916000000    -1.082000000    -1.157000000
H     5.864000000    -2.141000000    -0.901000000
O     5.989000000     0.655000000    -6.303000000
H     6.079000000     0.206000000    -5.462000000
H     5.202000000     0.277000000    -6.694000000
O     1.972000000    -2.056000000    -5.015000000
H     2.348000000    -2.497000000    -4.253000000
H     1.031000000    -2.215000000    -4.943000000
O     5.911000000    -4.834000000     0.405000000
H     5.185000000    -5.154000000    -0.131000000
H     6.051000000    -3.935000000     0.106000000
O     6.729000000    -3.468000000    -3.693000000
H     6.034000000    -3.531000000    -3.038000000
H     7.473000000    -3.922000000    -3.298000000
