215
-1462.46165
C    -1.643000000    -5.014000000    -0.469000000
H    -2.408000000    -4.542000000    -1.081000000
C    -1.567000000    -4.613000000     0.867000000
C    -0.741000000    -5.300000000     1.747000000
H    -0.643000000    -4.885000000     2.747000000
C    -2.384000000    -3.428000000     1.279000000
O    -3.654000000    -3.356000000     0.679000000
H    -1.856000000    -2.561000000     0.856000000
O    -2.442000000    -3.307000000     2.679000000
C    -2.220000000    -2.071000000     3.254000000
C    -1.037000000    -1.825000000     3.915000000
H    -0.155000000    -2.457000000     3.978000000
C    -0.969000000    -0.630000000     4.656000000
O     0.319000000    -0.297000000     5.054000000
C    -1.936000000     0.379000000     4.601000000
C    -1.631000000     1.779000000     5.129000000
H    -2.606000000     2.220000000     5.348000000
C    -0.973000000     2.660000000     4.030000000
C    -1.785000000     3.535000000     3.267000000
H    -2.838000000     3.701000000     3.479000000
H    -1.140000000     1.649000000     6.095000000
C    -3.165000000    -0.033000000     4.010000000
H    -3.946000000     0.723000000     4.041000000
C    -3.318000000    -1.209000000     3.293000000
C    -4.698000000    -1.518000000     2.646000000
H    -5.618000000    -1.077000000     3.037000000
H    -4.886000000    -2.594000000     2.676000000
C    -4.601000000    -1.169000000     1.194000000
C    -5.104000000     0.076000000     0.738000000
H    -5.585000000     0.801000000     1.389000000
C    -4.030000000    -2.080000000     0.254000000
C    -3.779000000    -1.673000000    -1.042000000
H    -3.211000000    -2.277000000    -1.745000000
C    -4.218000000    -0.422000000    -1.476000000
O    -3.976000000    -0.081000000    -2.770000000
C    -2.882000000     0.689000000    -3.006000000
C    -2.075000000     0.298000000    -4.234000000
C    -1.422000000     1.222000000    -5.119000000
H    -1.674000000     2.279000000    -5.082000000
C    -1.569000000    -0.999000000    -4.230000000
H    -1.835000000    -1.679000000    -3.425000000
O    -3.337000000     2.044000000    -3.289000000
H    -2.223000000     0.682000000    -2.125000000
C    -4.924000000     0.459000000    -0.622000000
C    -5.264000000     1.858000000    -1.113000000
H    -5.965000000     2.335000000    -0.424000000
H    -5.840000000     1.777000000    -2.037000000
C    -4.007000000     2.729000000    -1.121000000
C    -3.642000000     3.512000000     0.037000000
H    -4.228000000     3.447000000     0.950000000
C    -3.150000000     2.882000000    -2.227000000
C    -2.005000000     3.707000000    -2.202000000
H    -1.348000000     3.764000000    -3.066000000
C    -1.664000000     4.408000000    -1.070000000
O    -0.396000000     5.001000000    -1.053000000
C     0.593000000     4.209000000    -0.421000000
C     1.954000000     4.377000000    -1.066000000
C     2.121000000     4.198000000    -2.469000000
H     1.206000000     3.963000000    -3.008000000
C     3.115000000     4.493000000    -0.296000000
H     3.046000000     4.510000000     0.789000000
O     0.674000000     4.759000000     0.897000000
H     0.476000000     3.115000000    -0.421000000
C    -2.472000000     4.365000000     0.071000000
C    -2.070000000     5.094000000     1.330000000
H    -2.968000000     5.449000000     1.840000000
H    -1.462000000     5.952000000     1.035000000
C    -1.229000000     4.261000000     2.210000000
C     0.125000000     4.038000000     1.878000000
C     0.848000000     3.144000000     2.609000000
H     1.908000000     3.071000000     2.377000000
C     0.376000000     2.458000000     3.717000000
O     1.259000000     1.638000000     4.376000000
C     1.092000000     0.304000000     4.009000000
H     0.459000000     0.240000000     3.112000000
C     2.382000000    -0.468000000     3.617000000
C     2.736000000    -1.687000000     4.183000000
H     2.069000000    -2.136000000     4.916000000
C     3.355000000     0.129000000     2.753000000
H     3.145000000     1.127000000     2.376000000
C     4.439000000    -0.604000000     2.277000000
O     5.317000000    -0.006000000     1.381000000
C     4.506000000    -1.950000000     2.539000000
H     5.274000000    -2.511000000     2.012000000
C     3.703000000    -2.482000000     3.536000000
O     3.902000000    -3.808000000     3.948000000
C     2.852000000    -4.735000000     4.207000000
C     2.341000000    -5.435000000     3.108000000
H     2.715000000    -5.228000000     2.108000000
C     2.463000000    -5.069000000     5.546000000
H     2.960000000    -4.647000000     6.415000000
C     1.491000000    -6.040000000     5.740000000
H     1.280000000    -6.381000000     6.750000000
C     0.874000000    -6.625000000     4.614000000
H     0.103000000    -7.374000000     4.775000000
C     1.354000000    -6.368000000     3.350000000
O     0.805000000    -7.008000000     2.241000000
C    -0.001000000    -6.413000000     1.331000000
C    -0.119000000    -6.855000000    -0.045000000
H     0.395000000    -7.723000000    -0.451000000
C    -0.931000000    -6.086000000    -0.909000000
O    -0.941000000    -6.375000000    -2.251000000
C    -1.411000000    -5.535000000    -3.250000000
C    -0.568000000    -4.440000000    -3.612000000
H     0.385000000    -4.225000000    -3.136000000
C    -2.559000000    -5.855000000    -3.917000000
H    -3.065000000    -6.770000000    -3.619000000
C    -2.919000000    -5.167000000    -5.007000000
H    -3.758000000    -5.519000000    -5.602000000
C    -2.137000000    -4.085000000    -5.370000000
H    -2.379000000    -3.490000000    -6.248000000
C    -1.011000000    -3.721000000    -4.707000000
O    -0.203000000    -2.699000000    -5.175000000
C    -0.635000000    -1.446000000    -5.161000000
C    -0.110000000    -0.577000000    -6.035000000
H     0.521000000    -0.908000000    -6.856000000
C    -0.546000000     0.738000000    -6.050000000
O     0.081000000     1.649000000    -6.910000000
C     0.896000000     2.692000000    -6.523000000
C     1.952000000     2.573000000    -5.587000000
H     2.205000000     1.717000000    -4.966000000
C     0.551000000     3.964000000    -7.055000000
H    -0.394000000     4.124000000    -7.567000000
C     1.403000000     5.034000000    -6.821000000
H     1.152000000     6.024000000    -7.192000000
C     2.484000000     4.928000000    -5.916000000
H     3.146000000     5.781000000    -5.792000000
C     2.698000000     3.703000000    -5.280000000
O     3.551000000     3.596000000    -4.248000000
C     3.371000000     4.078000000    -3.009000000
C     4.538000000     4.353000000    -2.275000000
H     5.467000000     4.390000000    -2.838000000
C     4.405000000     4.505000000    -0.911000000
O     5.530000000     4.577000000    -0.074000000
C     5.916000000     3.529000000     0.831000000
C     6.753000000     3.837000000     1.975000000
H     7.085000000     4.865000000     2.094000000
C     7.092000000     2.808000000     2.863000000
H     7.656000000     2.969000000     3.777000000
C     6.657000000     1.508000000     2.718000000
H     6.798000000     0.674000000     3.401000000
C     5.826000000     1.245000000     1.617000000
C     5.384000000     2.236000000     0.745000000
H     4.499000000     1.996000000     0.162000000
C     1.591000000     0.300000000    -1.731000000
H     2.229000000     0.745000000    -2.491000000
C     0.327000000     0.756000000    -1.472000000
H     0.027000000     1.616000000    -2.065000000
C    -0.479000000     0.247000000    -0.428000000
H    -1.469000000     0.683000000    -0.178000000
C     0.024000000    -0.782000000     0.321000000
H    -0.453000000    -1.026000000     1.267000000
C     1.288000000    -1.350000000     0.036000000
H     1.715000000    -2.122000000     0.672000000
C     2.071000000    -0.775000000    -0.956000000
C     3.457000000    -1.291000000    -1.214000000
O     3.932000000    -2.199000000    -0.548000000
O     4.152000000    -0.993000000    -2.202000000
O     4.104000000    -4.605000000    -3.189000000
H     4.580000000    -5.390000000    -3.461000000
H     4.093000000    -4.651000000    -2.233000000
O     9.244000000    -2.905000000    -4.741000000
H     8.422000000    -2.547000000    -4.404000000
H     9.594000000    -2.213000000    -5.301000000
O     3.210000000    -7.152000000    -0.271000000
H     2.907000000    -6.260000000    -0.442000000
H     2.936000000    -7.651000000    -1.040000000
O     2.133000000    -6.905000000    -4.516000000
H     2.719000000    -6.561000000    -5.191000000
H     2.058000000    -6.194000000    -3.880000000
O     6.523000000    -0.901000000    -1.021000000
H     6.184000000    -0.360000000    -0.308000000
H     5.742000000    -1.202000000    -1.486000000
O     7.662000000    -3.637000000     1.575000000
H     7.825000000    -3.106000000     2.354000000
H     7.848000000    -3.050000000     0.842000000
O     3.967000000    -2.295000000    -4.510000000
H     4.016000000    -1.588000000    -3.865000000
H     3.861000000    -3.089000000    -3.987000000
O     8.202000000    -3.791000000    -1.993000000
H     7.419000000    -3.240000000    -1.966000000
H     8.705000000    -3.455000000    -2.735000000
O     6.844000000     2.974000000    -4.816000000
H     6.535000000     3.715000000    -5.337000000
H     6.045000000     2.517000000    -4.554000000
O     6.297000000    -3.791000000    -6.465000000
H     6.118000000    -3.579000000    -5.549000000
H     6.544000000    -2.955000000    -6.861000000
O     2.011000000    -4.444000000    -0.338000000
H     1.097000000    -4.238000000    -0.143000000
H     2.463000000    -3.601000000    -0.285000000
O     8.950000000    -0.013000000    -2.110000000
H     9.471000000     0.315000000    -1.377000000
H     8.087000000    -0.185000000    -1.734000000
O     5.607000000    -7.266000000     1.362000000
H     4.794000000    -7.159000000     0.869000000
H     5.336000000    -7.668000000     2.188000000
O     7.257000000    -1.074000000    -6.578000000
H     6.689000000    -0.997000000    -7.344000000
H     6.801000000    -0.587000000    -5.892000000
O     7.029000000    -1.918000000    -3.732000000
H     6.998000000    -1.205000000    -3.095000000
H     6.124000000    -2.222000000    -3.796000000
O     2.580000000    -3.365000000    -6.798000000
H     2.908000000    -4.264000000    -6.773000000
H     2.763000000    -3.019000000    -5.924000000
O     3.763000000     0.534000000    -6.619000000
H     3.847000000    -0.134000000    -7.300000000
H     3.776000000     1.364000000    -7.095000000
O     5.192000000    -4.614000000    -0.623000000
H     6.091000000    -4.687000000    -0.304000000
H     4.938000000    -3.713000000    -0.421000000
O     5.184000000     0.663000000    -4.061000000
H     4.756000000     0.213000000    -3.333000000
H     4.494000000     0.771000000    -4.716000000
