215
-1457.58681
C    -2.552000000    -4.675000000    -0.085000000
H    -3.605000000    -4.422000000    -0.178000000
C    -1.695000000    -4.053000000     0.852000000
C    -0.324000000    -4.335000000     0.787000000
H     0.343000000    -3.742000000     1.407000000
C    -2.183000000    -2.955000000     1.811000000
O    -3.656000000    -2.933000000     1.870000000
H    -1.889000000    -1.963000000     1.438000000
O    -1.749000000    -3.147000000     3.185000000
C    -1.280000000    -2.037000000     3.860000000
C     0.072000000    -1.856000000     3.857000000
H     0.697000000    -2.601000000     3.370000000
C     0.661000000    -0.707000000     4.390000000
O     2.010000000    -0.750000000     4.266000000
C    -0.127000000     0.321000000     4.899000000
C     0.535000000     1.578000000     5.437000000
H    -0.155000000     2.104000000     6.101000000
C     0.954000000     2.488000000     4.274000000
C     0.046000000     3.454000000     3.843000000
H    -0.910000000     3.516000000     4.357000000
H     1.422000000     1.314000000     6.016000000
C    -1.523000000     0.177000000     4.746000000
H    -2.201000000     0.991000000     4.990000000
C    -2.099000000    -0.965000000     4.269000000
C    -3.622000000    -1.084000000     4.138000000
H    -4.061000000    -0.559000000     4.989000000
H    -4.050000000    -2.074000000     4.307000000
C    -4.207000000    -0.700000000     2.817000000
C    -4.433000000     0.663000000     2.522000000
H    -4.203000000     1.384000000     3.302000000
C    -4.221000000    -1.610000000     1.790000000
C    -4.591000000    -1.212000000     0.494000000
H    -4.533000000    -1.932000000    -0.319000000
C    -4.876000000     0.093000000     0.183000000
O    -4.856000000     0.490000000    -1.121000000
C    -3.597000000     0.874000000    -1.714000000
C    -3.441000000     0.270000000    -3.102000000
C    -2.641000000     0.841000000    -4.057000000
H    -2.055000000     1.726000000    -3.823000000
C    -4.047000000    -0.930000000    -3.320000000
H    -4.619000000    -1.503000000    -2.595000000
O    -3.656000000     2.294000000    -1.878000000
H    -2.780000000     0.525000000    -1.066000000
C    -4.730000000     1.083000000     1.178000000
C    -4.793000000     2.534000000     0.805000000
H    -5.070000000     3.035000000     1.735000000
H    -5.613000000     2.646000000     0.093000000
C    -3.482000000     3.187000000     0.356000000
C    -2.800000000     3.906000000     1.328000000
H    -3.037000000     4.030000000     2.382000000
C    -3.002000000     3.046000000    -0.924000000
C    -1.860000000     3.699000000    -1.250000000
H    -1.437000000     3.527000000    -2.237000000
C    -1.116000000     4.473000000    -0.345000000
O     0.120000000     4.803000000    -0.773000000
C     1.229000000     3.987000000    -0.342000000
C     2.179000000     3.855000000    -1.560000000
C     1.682000000     3.860000000    -2.878000000
H     0.647000000     4.053000000    -3.147000000
C     3.537000000     3.766000000    -1.373000000
H     3.913000000     3.820000000    -0.355000000
O     1.832000000     4.614000000     0.816000000
H     0.921000000     2.935000000    -0.253000000
C    -1.563000000     4.503000000     0.942000000
C    -0.743000000     5.132000000     2.050000000
H    -1.356000000     5.411000000     2.909000000
H    -0.293000000     6.094000000     1.797000000
C     0.287000000     4.192000000     2.639000000
C     1.544000000     3.972000000     2.004000000
C     2.443000000     3.038000000     2.522000000
H     3.340000000     2.803000000     1.955000000
C     2.150000000     2.360000000     3.632000000
O     3.032000000     1.290000000     3.849000000
C     2.621000000     0.035000000     3.221000000
H     1.950000000     0.163000000     2.358000000
C     3.829000000    -0.709000000     2.672000000
C     3.989000000    -2.083000000     2.756000000
H     3.181000000    -2.690000000     3.156000000
C     4.778000000     0.043000000     2.015000000
H     4.732000000     1.126000000     1.935000000
C     5.879000000    -0.603000000     1.361000000
O     6.951000000     0.134000000     0.747000000
C     6.014000000    -1.965000000     1.494000000
H     6.884000000    -2.473000000     1.084000000
C     5.063000000    -2.723000000     2.157000000
O     5.249000000    -4.083000000     2.255000000
C     4.210000000    -4.982000000     2.237000000
C     3.343000000    -4.849000000     1.183000000
H     3.489000000    -4.183000000     0.337000000
C     4.021000000    -5.851000000     3.293000000
H     4.717000000    -5.906000000     4.126000000
C     2.927000000    -6.696000000     3.316000000
H     2.730000000    -7.283000000     4.209000000
C     2.019000000    -6.633000000     2.200000000
H     1.109000000    -7.228000000     2.206000000
C     2.238000000    -5.712000000     1.151000000
O     1.506000000    -5.791000000     0.014000000
C     0.233000000    -5.349000000    -0.094000000
C    -0.630000000    -5.899000000    -1.045000000
H    -0.240000000    -6.536000000    -1.835000000
C    -2.031000000    -5.640000000    -0.970000000
O    -2.789000000    -6.261000000    -1.877000000
C    -3.821000000    -5.656000000    -2.558000000
C    -3.599000000    -4.519000000    -3.311000000
H    -2.582000000    -4.146000000    -3.408000000
C    -5.048000000    -6.181000000    -2.376000000
H    -5.298000000    -7.045000000    -1.766000000
C    -6.121000000    -5.615000000    -3.035000000
H    -7.074000000    -6.120000000    -3.168000000
C    -5.879000000    -4.443000000    -3.809000000
H    -6.667000000    -4.108000000    -4.479000000
C    -4.656000000    -3.872000000    -3.897000000
O    -4.337000000    -2.817000000    -4.835000000
C    -3.850000000    -1.587000000    -4.510000000
C    -3.026000000    -0.999000000    -5.468000000
H    -2.803000000    -1.655000000    -6.306000000
C    -2.436000000     0.262000000    -5.279000000
O    -1.513000000     0.797000000    -6.249000000
C    -0.947000000     2.015000000    -6.147000000
C     0.371000000     2.187000000    -5.721000000
H     1.027000000     1.325000000    -5.628000000
C    -1.754000000     3.186000000    -6.423000000
H    -2.786000000     2.993000000    -6.705000000
C    -1.238000000     4.454000000    -6.337000000
H    -1.885000000     5.308000000    -6.523000000
C     0.124000000     4.649000000    -6.004000000
H     0.597000000     5.627000000    -6.040000000
C     0.826000000     3.510000000    -5.587000000
O     2.130000000     3.654000000    -5.227000000
C     2.519000000     3.666000000    -3.923000000
C     3.874000000     3.521000000    -3.765000000
H     4.590000000     3.461000000    -4.581000000
C     4.380000000     3.588000000    -2.469000000
O     5.798000000     3.562000000    -2.357000000
C     6.374000000     3.222000000    -1.140000000
C     6.756000000     4.104000000    -0.156000000
H     6.707000000     5.139000000    -0.484000000
C     7.232000000     3.754000000     1.141000000
H     7.554000000     4.537000000     1.823000000
C     7.298000000     2.415000000     1.448000000
H     7.542000000     2.042000000     2.439000000
C     6.947000000     1.472000000     0.456000000
C     6.433000000     1.852000000    -0.793000000
H     5.969000000     1.101000000    -1.427000000
C     1.622000000     0.413000000    -2.257000000
H     1.712000000     1.013000000    -3.158000000
C     0.650000000     0.736000000    -1.306000000
H    -0.186000000     1.407000000    -1.486000000
C     0.560000000    -0.111000000    -0.195000000
H    -0.238000000    -0.030000000     0.510000000
C     1.469000000    -1.089000000     0.075000000
H     1.316000000    -1.726000000     0.942000000
C     2.528000000    -1.298000000    -0.873000000
H     3.251000000    -2.101000000    -0.756000000
C     2.543000000    -0.629000000    -2.105000000
C     3.597000000    -0.796000000    -3.192000000
O     4.646000000    -1.358000000    -2.862000000
O     3.413000000    -0.458000000    -4.279000000
O     2.061000000    -3.704000000    -6.682000000
H     2.005000000    -2.751000000    -6.612000000
H     1.769000000    -3.896000000    -7.573000000
O     3.084000000    -6.125000000    -6.668000000
H     3.965000000    -6.256000000    -7.019000000
H     3.022000000    -5.180000000    -6.525000000
O     3.831000000    -3.608000000    -4.488000000
H     3.772000000    -2.801000000    -3.977000000
H     3.128000000    -3.536000000    -5.134000000
O     6.191000000    -4.709000000    -4.054000000
H     5.364000000    -4.332000000    -4.354000000
H     6.026000000    -5.651000000    -4.018000000
O    -1.201000000    -1.917000000    -1.879000000
H    -0.422000000    -1.490000000    -1.522000000
H    -0.894000000    -2.348000000    -2.676000000
O     4.134000000     1.244000000    -6.167000000
H     3.982000000     0.490000000    -5.598000000
H     3.345000000     1.778000000    -6.072000000
O    -0.743000000    -5.148000000    -5.512000000
H    -0.230000000    -5.645000000    -6.149000000
H    -0.095000000    -4.802000000    -4.899000000
O    -0.022000000    -2.522000000    -4.464000000
H    -0.536000000    -2.321000000    -5.245000000
H     0.858000000    -2.203000000    -4.667000000
O     4.041000000     2.535000000    -8.743000000
H     4.625000000     3.287000000    -8.642000000
H     4.037000000     2.117000000    -7.881000000
O     6.612000000    -2.356000000    -6.684000000
H     6.551000000    -2.080000000    -5.769000000
H     6.829000000    -1.555000000    -7.161000000
O     8.207000000     3.553000000    -3.627000000
H     7.392000000     3.392000000    -3.151000000
H     8.059000000     3.170000000    -4.491000000
O     6.943000000     1.462000000    -6.152000000
H     7.024000000     0.730000000    -5.541000000
H     6.005000000     1.521000000    -6.332000000
O     9.675000000     0.461000000    -2.388000000
H    10.293000000     0.511000000    -1.659000000
H     9.120000000    -0.291000000    -2.181000000
O     2.996000000    -6.356000000    -2.955000000
H     3.233000000    -6.405000000    -2.028000000
H     2.884000000    -5.420000000    -3.123000000
O     8.842000000    -2.389000000    -1.741000000
H     7.919000000    -2.638000000    -1.772000000
H     9.144000000    -2.691000000    -0.884000000
O     6.956000000    -0.755000000    -4.191000000
H     7.370000000    -1.324000000    -3.542000000
H     6.087000000    -0.576000000    -3.834000000
O     3.430000000    -0.490000000    -8.703000000
H     3.179000000    -0.759000000    -9.587000000
H     4.380000000    -0.388000000    -8.745000000
O     6.318000000    -3.098000000    -1.885000000
H     6.337000000    -3.619000000    -2.688000000
H     5.676000000    -2.410000000    -2.061000000
O     2.114000000    -0.980000000    -6.330000000
H     2.623000000    -0.673000000    -5.580000000
H     2.724000000    -0.940000000    -7.066000000
