215
-1460.69397
C    -1.634000000    -4.678000000    -0.582000000
H    -2.539000000    -4.192000000    -0.938000000
C    -1.257000000    -4.700000000     0.712000000
C    -0.150000000    -5.531000000     1.005000000
H     0.123000000    -5.619000000     2.054000000
C    -1.788000000    -3.672000000     1.666000000
O    -3.263000000    -3.611000000     1.642000000
H    -1.332000000    -2.760000000     1.253000000
O    -1.296000000    -3.910000000     2.998000000
C    -0.887000000    -2.823000000     3.677000000
C     0.510000000    -2.627000000     3.808000000
H     1.173000000    -3.377000000     3.384000000
C     1.028000000    -1.442000000     4.388000000
O     2.375000000    -1.157000000     4.231000000
C     0.087000000    -0.436000000     4.846000000
C     0.569000000     0.862000000     5.459000000
H    -0.119000000     1.186000000     6.244000000
C     0.773000000     1.991000000     4.391000000
C    -0.263000000     2.871000000     4.115000000
H    -1.188000000     2.910000000     4.686000000
H     1.478000000     0.765000000     6.056000000
C    -1.241000000    -0.744000000     4.790000000
H    -1.908000000     0.047000000     5.124000000
C    -1.740000000    -1.908000000     4.197000000
C    -3.192000000    -2.101000000     4.231000000
H    -3.599000000    -1.569000000     5.093000000
H    -3.444000000    -3.156000000     4.353000000
C    -3.810000000    -1.602000000     2.966000000
C    -4.262000000    -0.244000000     2.939000000
H    -4.255000000     0.302000000     3.880000000
C    -3.723000000    -2.345000000     1.770000000
C    -4.013000000    -1.658000000     0.552000000
H    -3.963000000    -2.207000000    -0.385000000
C    -4.511000000    -0.428000000     0.556000000
O    -4.822000000     0.131000000    -0.577000000
C    -3.849000000     0.962000000    -1.251000000
C    -3.633000000     0.556000000    -2.652000000
C    -2.546000000     1.069000000    -3.368000000
H    -2.051000000     1.936000000    -2.940000000
C    -4.288000000    -0.574000000    -3.164000000
H    -5.060000000    -1.118000000    -2.626000000
O    -4.356000000     2.287000000    -1.163000000
H    -2.890000000     0.873000000    -0.720000000
C    -4.638000000     0.346000000     1.727000000
C    -5.132000000     1.794000000     1.759000000
H    -5.592000000     2.082000000     2.707000000
H    -5.946000000     1.893000000     1.039000000
C    -4.066000000     2.813000000     1.209000000
C    -3.244000000     3.520000000     2.149000000
H    -3.526000000     3.461000000     3.196000000
C    -3.810000000     3.024000000    -0.156000000
C    -2.654000000     3.720000000    -0.546000000
H    -2.453000000     3.756000000    -1.614000000
C    -1.840000000     4.324000000     0.396000000
O    -0.730000000     4.959000000    -0.128000000
C     0.602000000     4.307000000    -0.031000000
C     1.514000000     4.665000000    -1.313000000
C     0.973000000     4.909000000    -2.531000000
H    -0.113000000     4.927000000    -2.553000000
C     2.897000000     4.835000000    -1.251000000
H     3.378000000     4.783000000    -0.278000000
O     1.235000000     4.653000000     1.206000000
H     0.503000000     3.212000000    -0.049000000
C    -2.146000000     4.276000000     1.712000000
C    -1.245000000     4.833000000     2.824000000
H    -1.753000000     5.076000000     3.759000000
H    -0.909000000     5.821000000     2.500000000
C    -0.127000000     3.800000000     3.095000000
C     1.050000000     3.857000000     2.272000000
C     2.091000000     2.950000000     2.559000000
H     2.992000000     3.028000000     1.955000000
C     1.946000000     2.032000000     3.613000000
O     2.960000000     1.212000000     3.767000000
C     2.727000000    -0.102000000     3.226000000
H     1.936000000    -0.009000000     2.467000000
C     3.886000000    -0.538000000     2.313000000
C     4.183000000    -1.915000000     2.272000000
H     3.685000000    -2.626000000     2.926000000
C     4.459000000     0.305000000     1.364000000
H     4.113000000     1.336000000     1.386000000
C     5.279000000    -0.208000000     0.407000000
O     5.610000000     0.514000000    -0.698000000
C     5.629000000    -1.564000000     0.430000000
H     6.157000000    -2.000000000    -0.414000000
C     5.071000000    -2.431000000     1.325000000
O     5.399000000    -3.696000000     1.289000000
C     4.579000000    -4.700000000     1.710000000
C     3.588000000    -5.173000000     0.912000000
H     3.496000000    -4.731000000    -0.077000000
C     4.819000000    -5.265000000     2.981000000
H     5.674000000    -4.906000000     3.549000000
C     3.977000000    -6.313000000     3.435000000
H     4.173000000    -6.812000000     4.381000000
C     2.970000000    -6.799000000     2.581000000
H     2.285000000    -7.577000000     2.908000000
C     2.792000000    -6.256000000     1.281000000
O     1.862000000    -6.791000000     0.413000000
C     0.614000000    -6.144000000     0.088000000
C     0.242000000    -6.055000000    -1.241000000
H     0.817000000    -6.579000000    -2.001000000
C    -0.952000000    -5.366000000    -1.605000000
O    -1.419000000    -5.333000000    -2.922000000
C    -2.601000000    -4.952000000    -3.316000000
C    -2.874000000    -3.776000000    -3.990000000
H    -2.083000000    -3.216000000    -4.482000000
C    -3.657000000    -5.857000000    -2.970000000
H    -3.513000000    -6.895000000    -2.679000000
C    -4.967000000    -5.458000000    -3.210000000
H    -5.760000000    -6.076000000    -2.796000000
C    -5.261000000    -4.250000000    -3.781000000
H    -6.308000000    -3.986000000    -3.903000000
C    -4.212000000    -3.443000000    -4.259000000
O    -4.556000000    -2.227000000    -4.853000000
C    -3.845000000    -1.129000000    -4.367000000
C    -2.821000000    -0.521000000    -5.101000000
H    -2.622000000    -0.875000000    -6.109000000
C    -2.167000000     0.531000000    -4.556000000
O    -1.068000000     0.971000000    -5.234000000
C    -0.979000000     2.330000000    -5.641000000
C     0.009000000     3.101000000    -5.107000000
H     0.680000000     2.678000000    -4.364000000
C    -1.902000000     2.905000000    -6.466000000
H    -2.708000000     2.328000000    -6.911000000
C    -1.898000000     4.246000000    -6.744000000
H    -2.649000000     4.711000000    -7.378000000
C    -0.860000000     5.074000000    -6.251000000
H    -0.783000000     6.135000000    -6.472000000
C     0.089000000     4.482000000    -5.392000000
O     1.131000000     5.257000000    -4.926000000
C     1.705000000     5.081000000    -3.714000000
C     3.073000000     5.222000000    -3.672000000
H     3.674000000     5.441000000    -4.551000000
C     3.686000000     5.056000000    -2.406000000
O     5.018000000     5.054000000    -2.279000000
C     5.664000000     4.109000000    -1.507000000
C     6.788000000     4.517000000    -0.785000000
H     7.164000000     5.537000000    -0.801000000
C     7.493000000     3.557000000    -0.104000000
H     8.380000000     3.798000000     0.477000000
C     7.087000000     2.206000000    -0.010000000
H     7.738000000     1.487000000     0.480000000
C     5.996000000     1.830000000    -0.783000000
C     5.266000000     2.784000000    -1.461000000
H     4.385000000     2.530000000    -2.044000000
C     0.069000000    -1.183000000    -2.191000000
H    -0.111000000    -1.722000000    -3.117000000
C    -0.757000000    -1.263000000    -1.073000000
H    -1.658000000    -1.868000000    -1.132000000
C    -0.474000000    -0.510000000     0.090000000
H    -1.116000000    -0.539000000     1.003000000
C     0.677000000     0.278000000     0.137000000
H     1.032000000     0.769000000     1.040000000
C     1.439000000     0.386000000    -1.034000000
H     2.271000000     1.085000000    -1.047000000
C     1.189000000    -0.372000000    -2.170000000
C     1.947000000     0.043000000    -3.422000000
O     2.532000000     1.152000000    -3.511000000
O     1.855000000    -0.642000000    -4.438000000
O     0.456000000    -1.746000000    -8.775000000
H     0.413000000    -0.889000000    -8.351000000
H    -0.427000000    -1.890000000    -9.114000000
O     5.511000000    -0.350000000    -4.981000000
H     5.746000000    -0.485000000    -4.063000000
H     5.415000000     0.598000000    -5.067000000
O     3.670000000    -2.129000000    -5.897000000
H     4.491000000    -1.903000000    -5.461000000
H     3.072000000    -1.419000000    -5.664000000
O     2.821000000     4.079000000    -6.972000000
H     2.136000000     4.720000000    -7.162000000
H     3.231000000     3.907000000    -7.820000000
O     6.327000000     4.466000000    -5.392000000
H     5.895000000     4.898000000    -6.129000000
H     5.662000000     3.877000000    -5.036000000
O     3.541000000    -4.915000000    -6.421000000
H     2.949000000    -5.242000000    -5.743000000
H     3.419000000    -3.966000000    -6.410000000
O     2.051000000    -2.880000000    -0.881000000
H     1.340000000    -3.396000000    -0.501000000
H     1.866000000    -1.981000000    -0.608000000
O     0.451000000    -2.322000000    -5.932000000
H     0.834000000    -2.303000000    -6.810000000
H     0.823000000    -1.557000000    -5.493000000
O     4.167000000     0.372000000    -8.026000000
H     3.287000000     0.644000000    -7.766000000
H     4.585000000     0.100000000    -7.209000000
O     4.361000000     2.504000000    -5.199000000
H     3.807000000     1.989000000    -4.613000000
H     3.745000000     2.959000000    -5.773000000
O     1.049000000    -4.741000000    -5.083000000
H     0.639000000    -3.938000000    -5.403000000
H     0.317000000    -5.286000000    -4.795000000
O     4.704000000    -6.219000000    -3.146000000
H     4.082000000    -5.512000000    -2.972000000
H     4.902000000    -6.139000000    -4.079000000
O    -1.668000000    -3.727000000    -7.181000000
H    -2.390000000    -3.269000000    -7.610000000
H    -1.241000000    -3.055000000    -6.648000000
O     5.572000000    -3.221000000    -2.914000000
H     4.644000000    -3.010000000    -3.019000000
H     5.833000000    -3.580000000    -3.762000000
O     2.913000000    -4.199000000    -3.142000000
H     2.615000000    -3.659000000    -2.410000000
H     2.194000000    -4.166000000    -3.773000000
O     7.874000000     0.479000000    -2.976000000
H     7.558000000    -0.007000000    -2.214000000
H     8.197000000    -0.196000000    -3.573000000
O    -0.510000000     0.685000000    -8.290000000
H    -0.926000000     1.391000000    -7.795000000
H    -0.765000000     0.846000000    -9.198000000
O     3.444000000    -3.218000000    -8.980000000
H     3.518000000    -2.360000000    -8.561000000
H     3.999000000    -3.791000000    -8.451000000
O     1.774000000     0.850000000    -6.667000000
H     1.901000000     0.551000000    -5.766000000
H     0.831000000     0.775000000    -6.813000000
