215
-1479.42522
C    -2.721000000    -3.915000000     0.789000000
H    -3.526000000    -3.230000000     0.535000000
C    -2.009000000    -3.706000000     1.950000000
C    -1.036000000    -4.617000000     2.328000000
H    -0.360000000    -4.392000000     3.149000000
C    -2.245000000    -2.304000000     2.631000000
O    -3.658000000    -1.911000000     2.719000000
H    -1.705000000    -1.551000000     2.038000000
O    -1.615000000    -2.331000000     3.950000000
C    -0.930000000    -1.214000000     4.404000000
C     0.448000000    -1.310000000     4.309000000
H     0.869000000    -2.276000000     4.040000000
C     1.297000000    -0.254000000     4.529000000
O     2.651000000    -0.453000000     4.292000000
C     0.715000000     1.014000000     4.784000000
C     1.665000000     2.150000000     4.862000000
H     1.245000000     2.907000000     5.529000000
C     1.962000000     2.778000000     3.540000000
C     1.107000000     3.795000000     3.034000000
H     0.304000000     4.185000000     3.654000000
H     2.512000000     1.786000000     5.446000000
C    -0.691000000     1.143000000     4.937000000
H    -1.137000000     2.129000000     5.039000000
C    -1.498000000     0.025000000     4.782000000
C    -3.003000000     0.221000000     4.697000000
H    -3.334000000     0.995000000     5.392000000
H    -3.429000000    -0.688000000     5.127000000
C    -3.518000000     0.474000000     3.252000000
C    -3.754000000     1.782000000     2.851000000
H    -3.441000000     2.652000000     3.423000000
C    -3.837000000    -0.596000000     2.432000000
C    -4.239000000    -0.309000000     1.165000000
H    -4.365000000    -1.086000000     0.415000000
C    -4.516000000     0.994000000     0.786000000
O    -4.890000000     1.182000000    -0.558000000
C    -3.773000000     1.402000000    -1.473000000
C    -3.834000000     0.574000000    -2.812000000
C    -2.919000000     0.793000000    -3.863000000
H    -2.275000000     1.662000000    -3.755000000
C    -4.706000000    -0.510000000    -2.942000000
H    -5.396000000    -0.785000000    -2.148000000
O    -3.671000000     2.791000000    -1.680000000
H    -2.849000000     1.120000000    -0.949000000
C    -4.238000000     2.052000000     1.625000000
C    -4.287000000     3.511000000     1.136000000
H    -4.377000000     4.239000000     1.945000000
H    -5.242000000     3.652000000     0.626000000
C    -2.979000000     3.889000000     0.357000000
C    -1.903000000     4.401000000     1.068000000
H    -2.020000000     4.631000000     2.124000000
C    -2.781000000     3.608000000    -1.009000000
C    -1.590000000     3.970000000    -1.694000000
H    -1.573000000     3.801000000    -2.768000000
C    -0.533000000     4.498000000    -0.979000000
O     0.696000000     4.753000000    -1.541000000
C     1.748000000     3.822000000    -1.303000000
C     2.594000000     3.380000000    -2.528000000
C     1.967000000     3.264000000    -3.753000000
H     0.933000000     3.594000000    -3.804000000
C     3.954000000     3.060000000    -2.455000000
H     4.491000000     3.109000000    -1.511000000
O     2.627000000     4.379000000    -0.282000000
H     1.244000000     2.904000000    -0.964000000
C    -0.713000000     4.792000000     0.389000000
C     0.417000000     5.358000000     1.268000000
H    -0.029000000     5.903000000     2.102000000
H     0.992000000     6.100000000     0.709000000
C     1.313000000     4.301000000     1.783000000
C     2.407000000     3.912000000     1.020000000
C     3.249000000     2.850000000     1.476000000
H     4.007000000     2.518000000     0.771000000
C     2.965000000     2.252000000     2.682000000
O     3.731000000     1.155000000     2.961000000
C     3.067000000    -0.113000000     2.956000000
H     2.121000000     0.032000000     2.413000000
C     3.848000000    -1.148000000     2.192000000
C     3.876000000    -2.516000000     2.599000000
H     3.447000000    -2.755000000     3.569000000
C     4.601000000    -0.839000000     1.091000000
H     4.665000000     0.196000000     0.766000000
C     5.289000000    -1.883000000     0.365000000
O     5.965000000    -1.654000000    -0.770000000
C     5.242000000    -3.234000000     0.805000000
H     5.733000000    -3.967000000     0.170000000
C     4.542000000    -3.549000000     1.956000000
O     4.603000000    -4.808000000     2.472000000
C     3.445000000    -5.437000000     2.984000000
C     2.330000000    -5.559000000     2.174000000
H     2.262000000    -5.040000000     1.221000000
C     3.622000000    -6.203000000     4.091000000
H     4.585000000    -6.119000000     4.589000000
C     2.602000000    -6.969000000     4.596000000
H     2.665000000    -7.608000000     5.473000000
C     1.370000000    -6.990000000     3.877000000
H     0.500000000    -7.516000000     4.262000000
C     1.241000000    -6.317000000     2.647000000
O     0.155000000    -6.642000000     1.890000000
C    -0.951000000    -5.801000000     1.618000000
C    -1.639000000    -6.008000000     0.433000000
H    -1.557000000    -6.928000000    -0.140000000
C    -2.589000000    -5.059000000     0.040000000
O    -3.435000000    -5.373000000    -1.050000000
C    -4.585000000    -4.699000000    -1.413000000
C    -4.593000000    -3.940000000    -2.563000000
H    -3.654000000    -3.915000000    -3.110000000
C    -5.850000000    -4.809000000    -0.724000000
H    -5.829000000    -5.537000000     0.083000000
C    -6.931000000    -4.098000000    -1.185000000
H    -7.806000000    -3.975000000    -0.551000000
C    -6.879000000    -3.406000000    -2.370000000
H    -7.811000000    -2.927000000    -2.659000000
C    -5.675000000    -3.270000000    -3.082000000
O    -5.631000000    -2.420000000    -4.169000000
C    -4.786000000    -1.303000000    -4.153000000
C    -3.907000000    -0.947000000    -5.150000000
H    -3.989000000    -1.411000000    -6.129000000
C    -2.979000000     0.075000000    -5.027000000
O    -2.173000000     0.500000000    -6.119000000
C    -1.508000000     1.726000000    -6.254000000
C    -0.130000000     1.827000000    -6.037000000
H     0.378000000     0.989000000    -5.567000000
C    -2.153000000     2.876000000    -6.769000000
H    -3.208000000     2.798000000    -7.022000000
C    -1.391000000     3.993000000    -7.125000000
H    -1.954000000     4.883000000    -7.391000000
C    -0.056000000     4.039000000    -6.898000000
H     0.572000000     4.918000000    -7.013000000
C     0.564000000     2.954000000    -6.319000000
O     1.925000000     2.984000000    -6.104000000
C     2.601000000     2.866000000    -4.876000000
C     3.949000000     2.591000000    -4.787000000
H     4.428000000     2.294000000    -5.716000000
C     4.652000000     2.652000000    -3.601000000
O     5.876000000     2.134000000    -3.638000000
C     6.416000000     1.515000000    -2.512000000
C     7.235000000     2.257000000    -1.649000000
H     7.494000000     3.294000000    -1.846000000
C     7.690000000     1.655000000    -0.476000000
H     8.324000000     2.201000000     0.217000000
C     7.294000000     0.354000000    -0.148000000
H     7.542000000    -0.130000000     0.793000000
C     6.415000000    -0.366000000    -1.054000000
C     6.064000000     0.193000000    -2.279000000
H     5.418000000    -0.379000000    -2.942000000
C    -1.027000000    -1.296000000    -2.038000000
H    -1.939000000    -1.857000000    -2.227000000
C    -0.858000000    -0.577000000    -0.851000000
H    -1.666000000    -0.542000000    -0.125000000
C     0.352000000    -0.022000000    -0.495000000
H     0.524000000     0.487000000     0.416000000
C     1.425000000     0.016000000    -1.387000000
H     2.368000000     0.440000000    -1.053000000
C     1.266000000    -0.662000000    -2.583000000
H     2.075000000    -0.796000000    -3.297000000
C     0.024000000    -1.312000000    -2.967000000
C    -0.052000000    -2.064000000    -4.276000000
O     0.890000000    -2.093000000    -5.070000000
O    -1.049000000    -2.731000000    -4.473000000
O    -5.627000000    -4.189000000    -6.668000000
H    -4.963000000    -4.092000000    -5.985000000
H    -5.299000000    -3.662000000    -7.397000000
O     3.380000000     1.720000000    -8.488000000
H     2.656000000     1.490000000    -9.070000000
H     3.118000000     1.377000000    -7.633000000
O    -2.854000000    -7.865000000    -4.406000000
H    -2.186000000    -8.254000000    -3.841000000
H    -2.406000000    -7.140000000    -4.842000000
O     3.638000000    -6.338000000    -1.246000000
H     3.401000000    -5.444000000    -1.493000000
H     4.578000000    -6.392000000    -1.416000000
O     2.083000000    -4.080000000    -1.922000000
H     2.141000000    -3.389000000    -1.262000000
H     1.144000000    -4.197000000    -2.064000000
O    -0.596000000    -4.681000000    -2.643000000
H    -0.900000000    -3.942000000    -3.169000000
H    -1.396000000    -5.143000000    -2.392000000
O    -1.499000000    -6.217000000    -6.214000000
H    -0.790000000    -5.613000000    -6.435000000
H    -1.365000000    -6.967000000    -6.793000000
O     0.672000000    -4.783000000    -6.630000000
H     0.237000000    -4.001000000    -6.291000000
H     1.518000000    -4.468000000    -6.948000000
O    -2.940000000    -3.819000000    -6.023000000
H    -2.354000000    -3.337000000    -5.439000000
H    -2.523000000    -4.674000000    -6.129000000
O     1.967000000    -1.257000000    -7.518000000
H     1.026000000    -1.292000000    -7.345000000
H     2.371000000    -1.280000000    -6.650000000
O     3.533000000    -4.209000000    -6.923000000
H     4.356000000    -4.681000000    -7.055000000
H     3.499000000    -4.046000000    -5.981000000
O     2.591000000    -8.467000000    -3.738000000
H     2.202000000    -7.592000000    -3.725000000
H     3.094000000    -8.518000000    -2.926000000
O     3.312000000    -3.344000000    -4.330000000
H     2.508000000    -2.989000000    -4.710000000
H     3.025000000    -3.779000000    -3.527000000
O     1.853000000    -2.460000000   -10.057000000
H     1.603000000    -3.350000000    -9.808000000
H     2.019000000    -2.017000000    -9.225000000
O    -0.448000000    -8.545000000    -3.080000000
H     0.292000000    -9.152000000    -3.048000000
H    -0.137000000    -7.816000000    -3.617000000
O     0.952000000    -6.164000000    -4.400000000
H     0.452000000    -5.766000000    -3.687000000
H     0.814000000    -5.579000000    -5.145000000
O    -0.677000000    -0.490000000   -10.032000000
H     0.119000000    -0.914000000   -10.355000000
H    -0.840000000    -0.902000000    -9.183000000
O    -1.280000000    -1.907000000    -7.772000000
H    -1.867000000    -1.267000000    -7.370000000
H    -1.799000000    -2.709000000    -7.826000000
O     5.145000000    -1.564000000    -5.449000000
H     5.299000000    -1.975000000    -6.299000000
H     4.386000000    -2.027000000    -5.093000000
