215
-1447.03261
C    -1.945000000    -3.857000000     0.104000000
H    -2.611000000    -3.064000000    -0.225000000
C    -1.540000000    -3.785000000     1.382000000
C    -0.808000000    -4.832000000     1.903000000
H    -0.418000000    -4.699000000     2.909000000
C    -1.935000000    -2.583000000     2.208000000
O    -3.366000000    -2.296000000     2.124000000
H    -1.384000000    -1.723000000     1.800000000
O    -1.615000000    -2.735000000     3.631000000
C    -0.871000000    -1.712000000     4.181000000
C     0.525000000    -1.848000000     4.312000000
H     1.047000000    -2.649000000     3.796000000
C     1.267000000    -0.734000000     4.650000000
O     2.565000000    -0.753000000     4.388000000
C     0.628000000     0.463000000     4.995000000
C     1.454000000     1.692000000     5.233000000
H     0.965000000     2.220000000     6.054000000
C     1.671000000     2.490000000     3.960000000
C     0.805000000     3.507000000     3.533000000
H     0.032000000     3.858000000     4.213000000
H     2.405000000     1.504000000     5.736000000
C    -0.795000000     0.487000000     4.991000000
H    -1.363000000     1.382000000     5.230000000
C    -1.546000000    -0.537000000     4.578000000
C    -3.075000000    -0.525000000     4.534000000
H    -3.285000000     0.220000000     5.304000000
H    -3.370000000    -1.485000000     4.963000000
C    -3.588000000    -0.119000000     3.143000000
C    -3.828000000     1.265000000     2.910000000
H    -3.605000000     1.924000000     3.746000000
C    -3.902000000    -1.030000000     2.144000000
C    -4.484000000    -0.592000000     0.947000000
H    -4.736000000    -1.357000000     0.216000000
C    -4.671000000     0.719000000     0.691000000
O    -5.025000000     1.084000000    -0.606000000
C    -3.972000000     1.419000000    -1.542000000
C    -3.963000000     0.870000000    -2.951000000
C    -3.185000000     1.436000000    -3.922000000
H    -2.758000000     2.418000000    -3.741000000
C    -4.675000000    -0.325000000    -3.207000000
H    -5.418000000    -0.674000000    -2.495000000
O    -3.940000000     2.875000000    -1.548000000
H    -3.086000000     1.047000000    -1.007000000
C    -4.357000000     1.673000000     1.646000000
C    -4.564000000     3.153000000     1.320000000
H    -4.710000000     3.598000000     2.306000000
H    -5.432000000     3.144000000     0.657000000
C    -3.395000000     3.774000000     0.604000000
C    -2.432000000     4.336000000     1.496000000
H    -2.713000000     4.205000000     2.538000000
C    -3.099000000     3.558000000    -0.745000000
C    -1.900000000     4.033000000    -1.264000000
H    -1.646000000     3.911000000    -2.314000000
C    -0.979000000     4.565000000    -0.430000000
O     0.210000000     4.860000000    -1.066000000
C     1.340000000     3.948000000    -0.850000000
C     2.098000000     3.818000000    -2.110000000
C     1.535000000     3.976000000    -3.330000000
H     0.463000000     4.152000000    -3.384000000
C     3.408000000     3.364000000    -2.075000000
H     3.908000000     3.160000000    -1.132000000
O     2.132000000     4.457000000     0.328000000
H     0.827000000     3.015000000    -0.575000000
C    -1.220000000     4.762000000     0.956000000
C    -0.074000000     5.217000000     1.853000000
H    -0.610000000     5.560000000     2.741000000
H     0.570000000     6.021000000     1.490000000
C     0.872000000     4.063000000     2.252000000
C     1.942000000     3.779000000     1.503000000
C     2.841000000     2.766000000     1.861000000
H     3.670000000     2.558000000     1.189000000
C     2.650000000     2.063000000     3.048000000
O     3.509000000     1.031000000     3.347000000
C     3.013000000    -0.308000000     3.042000000
H     2.093000000    -0.222000000     2.445000000
C     4.039000000    -1.251000000     2.409000000
C     4.063000000    -2.582000000     2.744000000
H     3.526000000    -2.954000000     3.612000000
C     4.607000000    -0.852000000     1.169000000
H     4.342000000     0.123000000     0.768000000
C     5.399000000    -1.729000000     0.447000000
O     5.989000000    -1.315000000    -0.701000000
C     5.497000000    -3.086000000     0.813000000
H     5.983000000    -3.723000000     0.078000000
C     4.798000000    -3.514000000     1.926000000
O     4.921000000    -4.846000000     2.175000000
C     3.865000000    -5.695000000     2.515000000
C     2.590000000    -5.749000000     1.857000000
H     2.344000000    -5.033000000     1.077000000
C     4.152000000    -6.548000000     3.554000000
H     5.139000000    -6.506000000     4.007000000
C     3.101000000    -7.446000000     3.999000000
H     3.233000000    -8.043000000     4.897000000
C     1.958000000    -7.631000000     3.276000000
H     1.253000000    -8.403000000     3.574000000
C     1.628000000    -6.686000000     2.249000000
O     0.403000000    -6.907000000     1.552000000
C    -0.402000000    -5.906000000     1.079000000
C    -0.964000000    -5.994000000    -0.221000000
H    -0.844000000    -6.858000000    -0.869000000
C    -1.722000000    -4.939000000    -0.724000000
O    -2.363000000    -5.039000000    -1.956000000
C    -3.619000000    -4.537000000    -2.219000000
C    -3.740000000    -3.537000000    -3.213000000
H    -2.912000000    -3.289000000    -3.872000000
C    -4.736000000    -4.950000000    -1.459000000
H    -4.472000000    -5.651000000    -0.671000000
C    -5.984000000    -4.481000000    -1.792000000
H    -6.803000000    -4.902000000    -1.215000000
C    -6.091000000    -3.551000000    -2.816000000
H    -7.108000000    -3.214000000    -2.997000000
C    -5.009000000    -3.092000000    -3.503000000
O    -5.179000000    -2.221000000    -4.575000000
C    -4.573000000    -0.978000000    -4.460000000
C    -3.865000000    -0.363000000    -5.434000000
H    -3.698000000    -0.882000000    -6.374000000
C    -3.117000000     0.758000000    -5.172000000
O    -2.296000000     1.271000000    -6.210000000
C    -1.569000000     2.411000000    -6.298000000
C    -0.228000000     2.505000000    -6.018000000
H     0.348000000     1.596000000    -5.868000000
C    -2.267000000     3.521000000    -6.587000000
H    -3.341000000     3.434000000    -6.729000000
C    -1.753000000     4.842000000    -6.468000000
H    -2.376000000     5.697000000    -6.719000000
C    -0.419000000     4.981000000    -6.200000000
H     0.007000000     5.964000000    -6.017000000
C     0.350000000     3.780000000    -6.009000000
O     1.655000000     3.912000000    -5.778000000
C     2.180000000     3.580000000    -4.521000000
C     3.466000000     3.122000000    -4.474000000
H     4.012000000     2.991000000    -5.404000000
C     4.080000000     3.003000000    -3.249000000
O     5.440000000     2.684000000    -3.184000000
C     6.044000000     1.963000000    -2.219000000
C     7.083000000     2.546000000    -1.440000000
H     7.340000000     3.581000000    -1.650000000
C     7.660000000     1.912000000    -0.439000000
H     8.347000000     2.392000000     0.254000000
C     7.338000000     0.562000000    -0.175000000
H     7.713000000    -0.077000000     0.621000000
C     6.414000000    -0.051000000    -0.972000000
C     5.708000000     0.679000000    -1.925000000
H     4.919000000     0.178000000    -2.480000000
C    -0.216000000    -0.573000000    -3.248000000
H    -0.638000000    -1.048000000    -4.130000000
C    -0.955000000    -0.439000000    -2.086000000
H    -2.036000000    -0.549000000    -2.062000000
C    -0.365000000     0.129000000    -0.982000000
H    -0.970000000     0.466000000    -0.070000000
C     0.962000000     0.430000000    -0.870000000
H     1.406000000     0.883000000     0.013000000
C     1.708000000     0.377000000    -2.054000000
H     2.767000000     0.622000000    -2.052000000
C     1.101000000    -0.139000000    -3.227000000
C     2.032000000    -0.452000000    -4.413000000
O     3.249000000    -0.434000000    -4.218000000
O     1.500000000    -0.834000000    -5.460000000
O    -1.148000000     0.861000000    -9.154000000
H    -1.070000000     0.339000000    -8.355000000
H    -2.060000000     1.152000000    -9.162000000
O     0.421000000     3.739000000    -8.979000000
H     1.257000000     3.283000000    -9.078000000
H    -0.112000000     3.150000000    -8.446000000
O     5.101000000    -1.058000000    -6.230000000
H     4.519000000    -0.677000000    -6.887000000
H     4.548000000    -1.171000000    -5.457000000
O     2.918000000     3.008000000    -8.611000000
H     3.633000000     3.567000000    -8.308000000
H     3.200000000     2.119000000    -8.394000000
O     1.861000000    -2.974000000    -0.570000000
H     1.666000000    -2.087000000    -0.873000000
H     2.737000000    -3.156000000    -0.910000000
O    -0.163000000    -5.331000000    -3.904000000
H    -0.256000000    -4.883000000    -3.063000000
H    -0.728000000    -6.100000000    -3.829000000
O     3.136000000    -5.238000000    -4.112000000
H     3.432000000    -4.344000000    -3.940000000
H     2.192000000    -5.156000000    -4.247000000
O     1.013000000    -2.126000000    -9.753000000
H     1.413000000    -2.769000000   -10.339000000
H     1.495000000    -2.219000000    -8.931000000
O    -0.706000000    -1.835000000    -7.380000000
H    -0.166000000    -2.103000000    -8.123000000
H    -0.076000000    -1.586000000    -6.703000000
O     7.721000000    -0.962000000    -6.652000000
H     6.774000000    -1.061000000    -6.755000000
H     7.889000000    -0.042000000    -6.859000000
O     4.278000000    -3.639000000    -8.577000000
H     4.815000000    -3.295000000    -9.291000000
H     4.837000000    -3.572000000    -7.803000000
O     6.159000000     1.480000000    -9.324000000
H     6.580000000     2.181000000    -8.826000000
H     5.451000000     1.175000000    -8.756000000
O     3.726000000    -2.824000000    -3.290000000
H     3.545000000    -1.936000000    -3.599000000
H     4.678000000    -2.906000000    -3.341000000
O    -0.923000000    -4.451000000    -6.397000000
H    -0.428000000    -4.644000000    -5.601000000
H    -0.627000000    -3.578000000    -6.658000000
O     6.471000000    -2.290000000    -3.334000000
H     7.369000000    -2.352000000    -3.661000000
H     6.547000000    -1.789000000    -2.521000000
O     6.153000000    -3.864000000    -6.651000000
H     6.438000000    -3.072000000    -6.193000000
H     6.338000000    -4.575000000    -6.038000000
O     1.422000000     0.442000000   -10.166000000
H     1.236000000    -0.487000000   -10.306000000
H     0.597000000     0.805000000    -9.843000000
O     1.756000000    -3.043000000    -7.458000000
H     2.645000000    -3.204000000    -7.775000000
H     1.877000000    -2.675000000    -6.582000000
O     3.244000000     0.269000000    -7.833000000
H     2.816000000    -0.252000000    -7.154000000
H     2.578000000     0.373000000    -8.512000000
