215
-1453.35104
C    -3.164000000    -3.967000000     1.592000000
H    -4.100000000    -3.448000000     1.783000000
C    -2.001000000    -3.542000000     2.219000000
C    -0.810000000    -4.249000000     1.985000000
H     0.035000000    -3.801000000     2.499000000
C    -1.903000000    -2.222000000     2.945000000
O    -3.246000000    -1.754000000     3.285000000
H    -1.443000000    -1.443000000     2.319000000
O    -1.138000000    -2.418000000     4.163000000
C    -0.252000000    -1.445000000     4.530000000
C     1.100000000    -1.579000000     4.154000000
H     1.449000000    -2.524000000     3.745000000
C     1.997000000    -0.539000000     4.228000000
O     3.323000000    -0.743000000     3.701000000
C     1.554000000     0.734000000     4.649000000
C     2.499000000     1.970000000     4.600000000
H     2.232000000     2.771000000     5.293000000
C     2.524000000     2.605000000     3.242000000
C     1.688000000     3.696000000     2.986000000
H     0.997000000     4.011000000     3.764000000
H     3.537000000     1.779000000     4.881000000
C     0.229000000     0.885000000     5.013000000
H    -0.177000000     1.858000000     5.275000000
C    -0.697000000    -0.179000000     4.864000000
C    -2.211000000     0.049000000     5.163000000
H    -2.287000000     0.705000000     6.033000000
H    -2.567000000    -0.902000000     5.564000000
C    -2.901000000     0.550000000     3.941000000
C    -2.947000000     1.932000000     3.606000000
H    -2.554000000     2.698000000     4.269000000
C    -3.412000000    -0.400000000     3.102000000
C    -4.112000000    -0.025000000     2.010000000
H    -4.551000000    -0.803000000     1.391000000
C    -4.266000000     1.299000000     1.692000000
O    -4.809000000     1.578000000     0.517000000
C    -3.879000000     1.736000000    -0.608000000
C    -4.077000000     0.743000000    -1.759000000
C    -3.216000000     0.813000000    -2.780000000
H    -2.476000000     1.608000000    -2.742000000
C    -5.082000000    -0.219000000    -1.732000000
H    -5.838000000    -0.202000000    -0.951000000
O    -3.745000000     3.148000000    -0.932000000
H    -2.877000000     1.450000000    -0.257000000
C    -3.675000000     2.338000000     2.451000000
C    -3.823000000     3.785000000     2.030000000
H    -3.691000000     4.424000000     2.905000000
H    -4.794000000     3.995000000     1.577000000
C    -2.731000000     4.120000000     1.044000000
C    -1.586000000     4.735000000     1.559000000
H    -1.601000000     5.045000000     2.600000000
C    -2.724000000     3.808000000    -0.296000000
C    -1.674000000     4.114000000    -1.093000000
H    -1.718000000     3.761000000    -2.120000000
C    -0.558000000     4.713000000    -0.626000000
O     0.476000000     4.828000000    -1.435000000
C     1.570000000     3.930000000    -1.425000000
C     2.124000000     3.688000000    -2.824000000
C     1.221000000     3.622000000    -3.864000000
H     0.160000000     3.800000000    -3.713000000
C     3.424000000     3.201000000    -2.985000000
H     4.091000000     3.206000000    -2.126000000
O     2.566000000     4.408000000    -0.548000000
H     1.121000000     2.999000000    -1.049000000
C    -0.452000000     4.978000000     0.781000000
C     0.846000000     5.476000000     1.431000000
H     0.554000000     5.985000000     2.352000000
H     1.282000000     6.343000000     0.930000000
C     1.788000000     4.336000000     1.715000000
C     2.553000000     3.840000000     0.720000000
C     3.473000000     2.809000000     0.993000000
H     4.158000000     2.447000000     0.232000000
C     3.442000000     2.189000000     2.282000000
O     4.142000000     1.009000000     2.258000000
C     3.478000000    -0.295000000     2.316000000
H     2.513000000    -0.103000000     1.824000000
C     4.166000000    -1.290000000     1.326000000
C     4.460000000    -2.529000000     1.804000000
H     4.298000000    -2.925000000     2.804000000
C     4.472000000    -0.939000000     0.095000000
H     4.349000000     0.098000000    -0.205000000
C     5.156000000    -1.876000000    -0.710000000
O     5.669000000    -1.501000000    -1.882000000
C     5.453000000    -3.153000000    -0.290000000
H     5.992000000    -3.800000000    -0.977000000
C     5.067000000    -3.467000000     1.006000000
O     5.123000000    -4.794000000     1.415000000
C     3.974000000    -5.516000000     1.614000000
C     2.763000000    -5.173000000     1.043000000
H     2.692000000    -4.380000000     0.302000000
C     4.055000000    -6.609000000     2.465000000
H     5.056000000    -6.863000000     2.804000000
C     2.879000000    -7.277000000     2.912000000
H     2.939000000    -8.144000000     3.564000000
C     1.699000000    -6.942000000     2.331000000
H     0.818000000    -7.535000000     2.565000000
C     1.638000000    -5.854000000     1.407000000
O     0.492000000    -5.751000000     0.628000000
C    -0.743000000    -5.253000000     1.026000000
C    -1.930000000    -5.674000000     0.413000000
H    -1.952000000    -6.577000000    -0.192000000
C    -3.146000000    -5.051000000     0.699000000
O    -4.275000000    -5.566000000     0.120000000
C    -5.275000000    -4.852000000    -0.295000000
C    -5.074000000    -3.817000000    -1.185000000
H    -4.057000000    -3.523000000    -1.435000000
C    -6.592000000    -5.150000000     0.091000000
H    -6.700000000    -5.966000000     0.801000000
C    -7.631000000    -4.399000000    -0.287000000
H    -8.642000000    -4.671000000     0.004000000
C    -7.433000000    -3.418000000    -1.259000000
H    -8.262000000    -2.856000000    -1.682000000
C    -6.157000000    -3.117000000    -1.755000000
O    -6.021000000    -2.150000000    -2.682000000
C    -5.097000000    -1.153000000    -2.722000000
C    -4.100000000    -1.153000000    -3.749000000
H    -4.197000000    -1.945000000    -4.486000000
C    -3.206000000    -0.120000000    -3.839000000
O    -2.300000000    -0.047000000    -4.854000000
C    -2.018000000     1.147000000    -5.452000000
C    -0.701000000     1.563000000    -5.549000000
H     0.082000000     0.977000000    -5.074000000
C    -3.068000000     1.924000000    -5.985000000
H    -4.093000000     1.627000000    -5.778000000
C    -2.753000000     3.072000000    -6.726000000
H    -3.503000000     3.737000000    -7.146000000
C    -1.470000000     3.444000000    -6.862000000
H    -1.294000000     4.339000000    -7.454000000
C    -0.443000000     2.794000000    -6.191000000
O     0.838000000     3.270000000    -6.211000000
C     1.692000000     3.276000000    -5.116000000
C     3.022000000     3.006000000    -5.344000000
H     3.431000000     2.749000000    -6.318000000
C     3.898000000     2.944000000    -4.228000000
O     5.155000000     2.519000000    -4.429000000
C     5.839000000     1.739000000    -3.516000000
C     7.047000000     2.173000000    -3.118000000
H     7.306000000     3.201000000    -3.356000000
C     7.921000000     1.417000000    -2.301000000
H     8.951000000     1.682000000    -2.077000000
C     7.443000000     0.214000000    -1.882000000
H     8.055000000    -0.411000000    -1.237000000
C     6.145000000    -0.207000000    -2.175000000
C     5.340000000     0.554000000    -2.981000000
H     4.392000000     0.140000000    -3.316000000
C    -0.940000000    -1.348000000    -1.212000000
H    -1.788000000    -2.007000000    -1.382000000
C    -1.082000000    -0.480000000    -0.134000000
H    -1.990000000    -0.496000000     0.463000000
C     0.036000000     0.300000000     0.327000000
H    -0.091000000     0.913000000     1.220000000
C     1.103000000     0.393000000    -0.559000000
H     1.936000000     1.035000000    -0.286000000
C     1.222000000    -0.438000000    -1.627000000
H     2.083000000    -0.413000000    -2.291000000
C     0.261000000    -1.423000000    -1.908000000
C     0.470000000    -2.465000000    -2.995000000
O     1.234000000    -2.201000000    -3.908000000
O    -0.259000000    -3.452000000    -2.940000000
O     5.296000000    -3.837000000    -5.820000000
H     5.356000000    -4.758000000    -6.076000000
H     4.614000000    -3.821000000    -5.148000000
O     3.340000000    -6.572000000    -4.360000000
H     3.016000000    -6.682000000    -3.466000000
H     2.792000000    -5.881000000    -4.731000000
O    -5.906000000    -4.392000000    -4.648000000
H    -6.493000000    -3.919000000    -5.239000000
H    -5.388000000    -3.706000000    -4.226000000
O     2.411000000    -5.496000000    -8.700000000
H     2.503000000    -4.594000000    -8.391000000
H     3.309000000    -5.824000000    -8.749000000
O     3.786000000    -3.185000000    -3.563000000
H     2.883000000    -2.911000000    -3.727000000
H     4.052000000    -2.684000000    -2.792000000
O    -1.607000000    -8.487000000    -2.483000000
H    -0.891000000    -7.985000000    -2.094000000
H    -1.780000000    -9.186000000    -1.853000000
O    -1.178000000    -4.447000000    -7.214000000
H    -1.284000000    -5.371000000    -7.440000000
H    -0.442000000    -4.433000000    -6.602000000
O    -0.070000000    -6.106000000    -2.921000000
H    -0.264000000    -5.189000000    -2.725000000
H     0.321000000    -6.086000000    -3.795000000
O     5.226000000    -1.101000000    -6.332000000
H     5.311000000    -2.054000000    -6.295000000
H     4.352000000    -0.924000000    -5.986000000
O    -2.075000000    -1.840000000    -7.605000000
H    -1.403000000    -2.482000000    -7.833000000
H    -2.031000000    -1.776000000    -6.651000000
O    -3.883000000    -5.037000000    -7.315000000
H    -4.643000000    -4.535000000    -7.608000000
H    -3.130000000    -4.506000000    -7.575000000
O     1.461000000    -2.868000000    -7.437000000
H     2.040000000    -2.162000000    -7.152000000
H     1.186000000    -2.613000000    -8.318000000
O     5.171000000    -6.344000000    -1.210000000
H     4.252000000    -6.191000000    -1.428000000
H     5.157000000    -6.616000000    -0.292000000
O    -2.521000000    -3.622000000    -4.365000000
H    -2.087000000    -3.778000000    -5.204000000
H    -1.804000000    -3.545000000    -3.736000000
O    -2.365000000    -6.742000000    -4.480000000
H    -2.131000000    -7.307000000    -3.744000000
H    -2.594000000    -5.905000000    -4.077000000
O     2.423000000    -6.861000000    -1.730000000
H     2.122000000    -7.588000000    -1.185000000
H     1.628000000    -6.365000000    -1.928000000
O     1.399000000    -4.662000000    -5.111000000
H     1.470000000    -4.341000000    -6.009000000
H     1.134000000    -3.896000000    -4.602000000
O     2.624000000    -0.599000000    -5.866000000
H     1.995000000    -0.106000000    -6.394000000
H     2.096000000    -0.997000000    -5.174000000
O     1.380000000     0.729000000    -7.838000000
H     0.772000000     1.413000000    -8.117000000
H     2.081000000     0.750000000    -8.490000000
