215
-1452.76724
C    -2.350000000    -3.800000000     1.762000000
H    -3.046000000    -3.020000000     1.465000000
C    -1.652000000    -3.544000000     2.952000000
C    -0.604000000    -4.409000000     3.351000000
H     0.036000000    -4.156000000     4.193000000
C    -1.621000000    -2.049000000     3.400000000
O    -2.884000000    -1.554000000     3.852000000
H    -1.122000000    -1.545000000     2.558000000
O    -0.707000000    -1.775000000     4.517000000
C     0.098000000    -0.677000000     4.576000000
C     1.395000000    -0.877000000     4.223000000
H     1.827000000    -1.828000000     3.922000000
C     2.276000000     0.199000000     4.174000000
O     3.555000000    -0.051000000     3.671000000
C     1.840000000     1.527000000     4.454000000
C     2.660000000     2.738000000     4.134000000
H     2.300000000     3.522000000     4.804000000
C     2.604000000     3.187000000     2.703000000
C     1.696000000     4.185000000     2.288000000
H     1.094000000     4.697000000     3.034000000
H     3.668000000     2.780000000     4.550000000
C     0.485000000     1.709000000     4.794000000
H     0.208000000     2.751000000     4.938000000
C    -0.400000000     0.624000000     4.858000000
C    -1.863000000     0.845000000     5.193000000
H    -1.905000000     1.742000000     5.814000000
H    -2.238000000     0.058000000     5.850000000
C    -2.748000000     0.932000000     3.988000000
C    -3.107000000     2.143000000     3.404000000
H    -2.785000000     3.125000000     3.741000000
C    -3.183000000    -0.262000000     3.403000000
C    -3.994000000    -0.138000000     2.240000000
H    -4.303000000    -0.996000000     1.648000000
C    -4.276000000     1.061000000     1.642000000
O    -4.896000000     0.953000000     0.493000000
C    -4.140000000     1.127000000    -0.773000000
C    -4.698000000     0.247000000    -1.857000000
C    -4.174000000     0.391000000    -3.116000000
H    -3.387000000     1.133000000    -3.226000000
C    -5.553000000    -0.799000000    -1.638000000
H    -5.934000000    -1.060000000    -0.655000000
O    -4.016000000     2.486000000    -1.229000000
H    -3.130000000     0.786000000    -0.501000000
C    -3.852000000     2.204000000     2.273000000
C    -3.991000000     3.586000000     1.570000000
H    -3.945000000     4.418000000     2.275000000
H    -5.023000000     3.606000000     1.212000000
C    -2.939000000     3.740000000     0.538000000
C    -1.770000000     4.409000000     0.898000000
H    -1.715000000     4.701000000     1.944000000
C    -3.013000000     3.245000000    -0.752000000
C    -1.975000000     3.545000000    -1.693000000
H    -2.217000000     3.323000000    -2.729000000
C    -0.828000000     4.190000000    -1.302000000
O     0.181000000     4.342000000    -2.229000000
C     1.265000000     3.447000000    -1.994000000
C     1.718000000     2.844000000    -3.352000000
C     0.796000000     2.586000000    -4.410000000
H    -0.221000000     2.909000000    -4.201000000
C     3.012000000     2.487000000    -3.554000000
H     3.796000000     2.579000000    -2.808000000
O     2.314000000     4.213000000    -1.336000000
H     0.873000000     2.530000000    -1.532000000
C    -0.735000000     4.651000000     0.040000000
C     0.471000000     5.490000000     0.529000000
H     0.247000000     6.222000000     1.308000000
H     0.959000000     6.090000000    -0.241000000
C     1.569000000     4.524000000     0.967000000
C     2.437000000     3.951000000     0.004000000
C     3.305000000     2.941000000     0.378000000
H     3.882000000     2.460000000    -0.407000000
C     3.424000000     2.626000000     1.728000000
O     4.373000000     1.655000000     1.984000000
C     3.825000000     0.355000000     2.302000000
H     2.856000000     0.359000000     1.782000000
C     4.603000000    -0.764000000     1.608000000
C     4.493000000    -2.099000000     1.955000000
H     3.778000000    -2.400000000     2.717000000
C     5.307000000    -0.452000000     0.458000000
H     5.298000000     0.599000000     0.182000000
C     5.795000000    -1.437000000    -0.361000000
O     6.523000000    -1.145000000    -1.496000000
C     5.567000000    -2.777000000    -0.109000000
H     5.805000000    -3.570000000    -0.813000000
C     4.967000000    -3.107000000     1.101000000
O     4.578000000    -4.443000000     1.304000000
C     3.911000000    -4.972000000     2.355000000
C     2.579000000    -5.385000000     2.215000000
H     2.141000000    -5.234000000     1.232000000
C     4.538000000    -5.088000000     3.595000000
H     5.528000000    -4.645000000     3.680000000
C     3.911000000    -5.816000000     4.639000000
H     4.356000000    -6.078000000     5.595000000
C     2.594000000    -6.303000000     4.415000000
H     2.101000000    -6.866000000     5.203000000
C     1.889000000    -6.040000000     3.243000000
O     0.603000000    -6.468000000     3.111000000
C    -0.431000000    -5.620000000     2.642000000
C    -1.265000000    -5.966000000     1.531000000
H    -1.093000000    -6.973000000     1.161000000
C    -2.185000000    -4.997000000     1.055000000
O    -2.943000000    -5.252000000    -0.084000000
C    -4.245000000    -4.854000000    -0.205000000
C    -4.671000000    -4.096000000    -1.264000000
H    -3.920000000    -3.670000000    -1.923000000
C    -5.218000000    -5.315000000     0.760000000
H    -4.918000000    -5.846000000     1.659000000
C    -6.562000000    -4.953000000     0.588000000
H    -7.293000000    -5.227000000     1.344000000
C    -6.949000000    -4.179000000    -0.484000000
H    -7.993000000    -3.892000000    -0.578000000
C    -5.954000000    -3.644000000    -1.364000000
O    -6.369000000    -2.824000000    -2.423000000
C    -5.780000000    -1.683000000    -2.631000000
C    -5.331000000    -1.497000000    -3.921000000
H    -5.399000000    -2.314000000    -4.635000000
C    -4.448000000    -0.484000000    -4.194000000
O    -3.907000000    -0.333000000    -5.493000000
C    -3.166000000     0.802000000    -5.912000000
C    -1.806000000     0.786000000    -6.066000000
H    -1.214000000    -0.104000000    -5.868000000
C    -3.860000000     1.977000000    -6.220000000
H    -4.937000000     1.891000000    -6.094000000
C    -3.284000000     3.070000000    -6.745000000
H    -3.959000000     3.916000000    -6.852000000
C    -1.923000000     3.151000000    -6.903000000
H    -1.388000000     4.066000000    -7.147000000
C    -1.181000000     1.975000000    -6.582000000
O     0.205000000     1.931000000    -6.652000000
C     1.150000000     2.033000000    -5.604000000
C     2.486000000     1.778000000    -5.850000000
H     2.840000000     1.522000000    -6.846000000
C     3.387000000     1.997000000    -4.832000000
O     4.684000000     1.639000000    -5.125000000
C     5.614000000     1.408000000    -4.136000000
C     6.679000000     2.286000000    -3.945000000
H     6.813000000     3.146000000    -4.596000000
C     7.624000000     2.055000000    -2.942000000
H     8.520000000     2.657000000    -2.813000000
C     7.473000000     0.974000000    -2.071000000
H     8.257000000     0.723000000    -1.360000000
C     6.472000000     0.040000000    -2.286000000
C     5.585000000     0.272000000    -3.289000000
H     4.860000000    -0.533000000    -3.380000000
C    -0.902000000    -1.336000000    -1.802000000
H    -1.890000000    -1.789000000    -1.771000000
C    -0.533000000    -0.623000000    -0.659000000
H    -1.244000000    -0.386000000     0.129000000
C     0.765000000    -0.188000000    -0.440000000
H     0.989000000     0.334000000     0.465000000
C     1.713000000    -0.459000000    -1.368000000
H     2.705000000    -0.088000000    -1.124000000
C     1.332000000    -1.025000000    -2.540000000
H     2.064000000    -1.200000000    -3.325000000
C     0.097000000    -1.560000000    -2.746000000
C    -0.156000000    -2.479000000    -3.966000000
O     0.575000000    -2.360000000    -4.925000000
O    -1.077000000    -3.303000000    -4.009000000
O     3.281000000    -6.934000000    -6.385000000
H     3.001000000    -6.167000000    -6.884000000
H     3.690000000    -6.571000000    -5.599000000
O     2.865000000    -3.749000000    -1.883000000
H     2.210000000    -3.138000000    -1.546000000
H     2.374000000    -4.549000000    -2.069000000
O    -1.838000000    -7.849000000    -2.762000000
H    -1.949000000    -8.195000000    -3.647000000
H    -1.412000000    -7.001000000    -2.889000000
O    -5.328000000    -6.792000000    -4.065000000
H    -4.965000000    -6.978000000    -3.199000000
H    -4.922000000    -5.964000000    -4.321000000
O     1.863000000    -4.732000000    -4.787000000
H     2.522000000    -4.451000000    -5.422000000
H     1.242000000    -4.005000000    -4.748000000
O    -0.691000000    -5.882000000    -5.926000000
H    -0.031000000    -5.564000000    -6.542000000
H    -1.024000000    -5.090000000    -5.503000000
O     0.058000000    -5.444000000    -2.770000000
H    -0.527000000    -4.706000000    -2.944000000
H     0.610000000    -5.502000000    -3.550000000
O     2.938000000    -1.949000000    -8.921000000
H     3.314000000    -1.754000000    -9.779000000
H     2.143000000    -1.417000000    -8.882000000
O     2.848000000    -1.510000000    -6.199000000
H     2.176000000    -1.796000000    -5.580000000
H     2.384000000    -0.935000000    -6.808000000
O     1.180000000    -4.969000000    -8.037000000
H     0.487000000    -4.308000000    -8.067000000
H     1.874000000    -4.565000000    -7.516000000
O     3.449000000    -4.078000000    -6.845000000
H     3.450000000    -3.126000000    -6.943000000
H     4.371000000    -4.326000000    -6.909000000
O     5.265000000    -3.796000000    -3.327000000
H     4.341000000    -3.816000000    -3.076000000
H     5.446000000    -4.681000000    -3.643000000
O    -1.621000000    -8.403000000    -5.919000000
H    -0.932000000    -8.860000000    -6.402000000
H    -1.405000000    -7.476000000    -6.014000000
O     1.402000000    -7.331000000    -0.635000000
H     2.291000000    -7.216000000    -0.970000000
H     0.875000000    -6.707000000    -1.134000000
O    -0.725000000    -2.831000000    -7.162000000
H     0.061000000    -2.432000000    -7.534000000
H    -0.698000000    -2.592000000    -6.235000000
O    -3.294000000    -3.067000000    -8.133000000
H    -2.447000000    -2.650000000    -7.974000000
H    -3.124000000    -3.698000000    -8.832000000
O    -3.138000000    -4.625000000    -4.835000000
H    -2.338000000    -4.285000000    -4.433000000
H    -3.142000000    -4.250000000    -5.715000000
O     0.863000000    -0.129000000    -8.657000000
H     0.578000000     0.543000000    -8.039000000
H     0.062000000    -0.393000000    -9.110000000
O     5.432000000    -0.781000000    -6.584000000
H     5.420000000    -0.092000000    -5.920000000
H     4.536000000    -1.118000000    -6.596000000
