215
-1447.04505
C    -4.104000000    -3.264000000     1.191000000
H    -4.760000000    -2.474000000     0.835000000
C    -3.120000000    -3.063000000     2.152000000
C    -2.372000000    -4.145000000     2.569000000
H    -1.632000000    -3.936000000     3.338000000
C    -2.889000000    -1.672000000     2.726000000
O    -4.151000000    -0.923000000     2.896000000
H    -2.222000000    -1.189000000     1.997000000
O    -2.239000000    -1.622000000     4.024000000
C    -1.272000000    -0.730000000     4.266000000
C     0.050000000    -1.153000000     4.162000000
H     0.274000000    -2.180000000     3.886000000
C     1.165000000    -0.304000000     4.230000000
O     2.437000000    -0.720000000     3.944000000
C     0.923000000     0.978000000     4.640000000
C     2.069000000     1.995000000     4.803000000
H     1.705000000     2.832000000     5.402000000
C     2.651000000     2.633000000     3.524000000
C     2.049000000     3.754000000     2.981000000
H     1.210000000     4.205000000     3.504000000
H     2.817000000     1.481000000     5.410000000
C    -0.348000000     1.413000000     4.838000000
H    -0.467000000     2.465000000     5.087000000
C    -1.485000000     0.581000000     4.619000000
C    -2.877000000     1.122000000     4.716000000
H    -2.889000000     2.041000000     5.305000000
H    -3.541000000     0.450000000     5.264000000
C    -3.366000000     1.409000000     3.314000000
C    -3.234000000     2.649000000     2.705000000
H    -2.644000000     3.425000000     3.185000000
C    -4.026000000     0.419000000     2.561000000
C    -4.454000000     0.618000000     1.229000000
H    -4.778000000    -0.234000000     0.637000000
C    -4.269000000     1.862000000     0.669000000
O    -4.496000000     2.105000000    -0.659000000
C    -3.347000000     1.972000000    -1.497000000
C    -3.628000000     0.945000000    -2.616000000
C    -2.794000000     0.985000000    -3.737000000
H    -2.102000000     1.818000000    -3.833000000
C    -4.634000000    -0.059000000    -2.596000000
H    -5.383000000    -0.200000000    -1.821000000
O    -2.929000000     3.301000000    -1.977000000
H    -2.505000000     1.477000000    -0.992000000
C    -3.663000000     2.936000000     1.416000000
C    -3.453000000     4.325000000     0.725000000
H    -3.789000000     5.026000000     1.492000000
H    -4.273000000     4.290000000     0.004000000
C    -2.100000000     4.449000000     0.019000000
C    -1.039000000     4.985000000     0.714000000
H    -1.128000000     5.076000000     1.794000000
C    -1.943000000     4.042000000    -1.326000000
C    -0.684000000     4.169000000    -1.950000000
H    -0.608000000     3.857000000    -2.988000000
C     0.409000000     4.561000000    -1.125000000
O     1.710000000     4.388000000    -1.669000000
C     2.544000000     3.327000000    -1.125000000
C     3.170000000     2.567000000    -2.229000000
C     2.411000000     2.159000000    -3.336000000
H     1.350000000     2.394000000    -3.372000000
C     4.538000000     2.146000000    -2.158000000
H     5.138000000     2.500000000    -1.323000000
O     3.567000000     3.876000000    -0.294000000
H     1.989000000     2.465000000    -0.725000000
C     0.277000000     4.890000000     0.215000000
C     1.475000000     5.366000000     1.070000000
H     1.171000000     6.045000000     1.870000000
H     2.070000000     6.073000000     0.489000000
C     2.333000000     4.248000000     1.709000000
C     3.365000000     3.665000000     1.064000000
C     4.049000000     2.585000000     1.600000000
H     4.668000000     2.003000000     0.922000000
C     3.677000000     2.032000000     2.823000000
O     4.016000000     0.745000000     3.058000000
C     3.059000000    -0.283000000     2.717000000
H     2.264000000     0.144000000     2.088000000
C     3.672000000    -1.485000000     2.013000000
C     2.923000000    -2.609000000     1.837000000
H     1.874000000    -2.503000000     2.101000000
C     5.010000000    -1.396000000     1.551000000
H     5.615000000    -0.557000000     1.885000000
C     5.528000000    -2.437000000     0.760000000
O     6.857000000    -2.309000000     0.268000000
C     4.675000000    -3.530000000     0.472000000
H     4.944000000    -4.370000000    -0.164000000
C     3.427000000    -3.680000000     1.115000000
O     2.693000000    -4.799000000     0.802000000
C     1.887000000    -5.407000000     1.736000000
C     0.561000000    -5.539000000     1.458000000
H     0.144000000    -5.356000000     0.471000000
C     2.441000000    -5.762000000     3.010000000
H     3.490000000    -5.510000000     3.138000000
C     1.641000000    -6.295000000     4.050000000
H     1.982000000    -6.582000000     5.042000000
C     0.300000000    -6.474000000     3.731000000
H    -0.384000000    -6.847000000     4.489000000
C    -0.152000000    -6.078000000     2.495000000
O    -1.522000000    -6.342000000     2.240000000
C    -2.404000000    -5.332000000     1.852000000
C    -3.427000000    -5.548000000     0.972000000
H    -3.630000000    -6.519000000     0.527000000
C    -4.295000000    -4.508000000     0.593000000
O    -5.391000000    -4.860000000    -0.241000000
C    -6.099000000    -4.014000000    -1.140000000
C    -5.560000000    -3.197000000    -2.130000000
H    -4.486000000    -3.071000000    -2.243000000
C    -7.530000000    -4.186000000    -1.062000000
H    -7.981000000    -4.710000000    -0.224000000
C    -8.404000000    -3.509000000    -1.907000000
H    -9.464000000    -3.609000000    -1.690000000
C    -7.823000000    -2.594000000    -2.868000000
H    -8.377000000    -1.824000000    -3.399000000
C    -6.448000000    -2.504000000    -2.956000000
O    -5.979000000    -1.536000000    -3.800000000
C    -4.842000000    -0.815000000    -3.722000000
C    -4.117000000    -0.630000000    -4.827000000
H    -4.488000000    -1.220000000    -5.661000000
C    -2.977000000     0.148000000    -4.853000000
O    -2.339000000     0.287000000    -6.083000000
C    -1.205000000     1.040000000    -6.203000000
C    -0.034000000     0.560000000    -5.674000000
H     0.049000000    -0.446000000    -5.269000000
C    -1.343000000     2.313000000    -6.741000000
H    -2.337000000     2.617000000    -7.059000000
C    -0.233000000     3.097000000    -6.829000000
H    -0.358000000     4.106000000    -7.212000000
C     1.023000000     2.575000000    -6.445000000
H     1.933000000     3.158000000    -6.560000000
C     1.089000000     1.303000000    -5.890000000
O     2.374000000     0.861000000    -5.433000000
C     3.042000000     1.388000000    -4.365000000
C     4.345000000     1.104000000    -4.263000000
H     4.686000000     0.458000000    -5.068000000
C     5.122000000     1.397000000    -3.201000000
O     6.401000000     0.945000000    -3.228000000
C     7.025000000     0.420000000    -2.113000000
C     8.150000000     1.133000000    -1.711000000
H     8.517000000     1.953000000    -2.322000000
C     8.855000000     0.651000000    -0.573000000
H     9.760000000     1.130000000    -0.209000000
C     8.412000000    -0.501000000     0.147000000
H     8.958000000    -0.834000000     1.026000000
C     7.230000000    -1.173000000    -0.299000000
C     6.526000000    -0.701000000    -1.403000000
H     5.567000000    -1.051000000    -1.775000000
C    -0.866000000    -1.746000000    -1.031000000
H    -1.778000000    -2.171000000    -1.441000000
C    -0.934000000    -0.637000000    -0.154000000
H    -1.881000000    -0.311000000     0.268000000
C     0.239000000     0.111000000     0.030000000
H     0.214000000     0.987000000     0.728000000
C     1.424000000    -0.163000000    -0.657000000
H     2.334000000     0.431000000    -0.666000000
C     1.429000000    -1.357000000    -1.286000000
H     2.361000000    -1.719000000    -1.712000000
C     0.314000000    -2.131000000    -1.588000000
C     0.398000000    -3.291000000    -2.533000000
O     1.455000000    -3.680000000    -2.967000000
O    -0.564000000    -3.972000000    -2.873000000
O     4.075000000    -3.759000000    -2.764000000
H     4.131000000    -4.629000000    -3.158000000
H     3.138000000    -3.569000000    -2.733000000
O    -2.786000000    -6.954000000    -5.325000000
H    -3.251000000    -6.668000000    -6.111000000
H    -3.451000000    -6.948000000    -4.637000000
O    -0.280000000    -7.964000000    -5.660000000
H    -1.144000000    -7.633000000    -5.415000000
H    -0.436000000    -8.872000000    -5.918000000
O     1.384000000    -2.748000000    -5.665000000
H     1.532000000    -2.612000000    -4.729000000
H     1.487000000    -3.692000000    -5.788000000
O    -3.492000000    -6.751000000    -2.454000000
H    -4.434000000    -6.673000000    -2.601000000
H    -3.416000000    -7.301000000    -1.674000000
O    -1.330000000    -2.959000000    -6.668000000
H    -1.816000000    -2.164000000    -6.448000000
H    -0.423000000    -2.757000000    -6.438000000
O    -0.694000000    -6.311000000    -2.411000000
H    -0.606000000    -5.358000000    -2.420000000
H    -1.554000000    -6.477000000    -2.796000000
O     6.001000000    -6.323000000    -4.422000000
H     5.099000000    -6.498000000    -4.153000000
H     5.974000000    -5.438000000    -4.787000000
O     4.920000000    -2.093000000    -5.600000000
H     5.684000000    -2.606000000    -5.337000000
H     4.183000000    -2.522000000    -5.167000000
O     3.028000000    -5.923000000    -5.133000000
H     3.228000000    -6.859000000    -5.124000000
H     2.116000000    -5.876000000    -5.419000000
O     3.587000000    -8.225000000    -3.025000000
H     3.922000000    -8.508000000    -2.174000000
H     2.986000000    -7.509000000    -2.820000000
O     7.177000000    -4.622000000    -1.983000000
H     7.508000000    -3.869000000    -1.493000000
H     6.267000000    -4.399000000    -2.178000000
O     2.036000000    -8.757000000     0.099000000
H     1.255000000    -8.210000000     0.017000000
H     1.710000000    -9.592000000     0.433000000
O     2.363000000    -6.174000000    -2.003000000
H     2.141000000    -5.350000000    -2.437000000
H     2.346000000    -5.965000000    -1.069000000
O     0.201000000    -5.203000000    -5.113000000
H     0.073000000    -4.729000000    -4.291000000
H    -0.001000000    -6.114000000    -4.898000000
O    -2.786000000    -3.888000000    -4.360000000
H    -2.126000000    -3.776000000    -5.044000000
H    -2.310000000    -4.284000000    -3.631000000
O    -5.107000000    -5.411000000    -5.478000000
H    -5.563000000    -4.810000000    -6.068000000
H    -4.476000000    -4.859000000    -5.016000000
O    -0.750000000    -8.024000000    -0.528000000
H    -0.542000000    -7.539000000    -1.327000000
H    -1.622000000    -7.716000000    -0.281000000
O    -0.808000000    -5.550000000    -7.666000000
H    -1.382000000    -4.804000000    -7.494000000
H    -0.354000000    -5.699000000    -6.836000000
