215
-1446.54831
C    -3.430000000    -3.899000000     1.389000000
H    -4.244000000    -3.183000000     1.302000000
C    -2.311000000    -3.568000000     2.218000000
C    -1.270000000    -4.463000000     2.301000000
H    -0.336000000    -4.164000000     2.769000000
C    -2.132000000    -2.194000000     2.792000000
O    -3.538000000    -1.782000000     3.024000000
H    -1.615000000    -1.602000000     2.022000000
O    -1.442000000    -2.237000000     4.028000000
C    -0.535000000    -1.225000000     4.351000000
C     0.808000000    -1.450000000     4.250000000
H     1.119000000    -2.378000000     3.778000000
C     1.743000000    -0.410000000     4.404000000
O     2.987000000    -0.686000000     3.997000000
C     1.232000000     0.872000000     4.703000000
C     2.196000000     2.039000000     4.792000000
H     1.878000000     2.769000000     5.538000000
C     2.459000000     2.648000000     3.395000000
C     1.580000000     3.607000000     3.031000000
H     0.845000000     3.894000000     3.779000000
H     3.140000000     1.648000000     5.178000000
C    -0.121000000     1.088000000     4.727000000
H    -0.577000000     2.058000000     4.909000000
C    -1.012000000     0.029000000     4.621000000
C    -2.514000000     0.237000000     4.788000000
H    -2.562000000     1.043000000     5.523000000
H    -2.998000000    -0.597000000     5.301000000
C    -3.142000000     0.598000000     3.481000000
C    -3.343000000     1.959000000     3.092000000
H    -2.870000000     2.758000000     3.658000000
C    -3.693000000    -0.427000000     2.710000000
C    -4.247000000    -0.103000000     1.509000000
H    -4.517000000    -0.946000000     0.878000000
C    -4.311000000     1.207000000     1.053000000
O    -4.808000000     1.488000000    -0.161000000
C    -3.727000000     1.657000000    -1.136000000
C    -3.665000000     0.693000000    -2.341000000
C    -2.685000000     0.906000000    -3.287000000
H    -2.037000000     1.774000000    -3.190000000
C    -4.510000000    -0.361000000    -2.442000000
H    -5.215000000    -0.488000000    -1.624000000
O    -3.666000000     3.040000000    -1.446000000
H    -2.808000000     1.429000000    -0.576000000
C    -3.917000000     2.211000000     1.864000000
C    -4.057000000     3.685000000     1.413000000
H    -4.272000000     4.376000000     2.231000000
H    -4.906000000     3.866000000     0.750000000
C    -2.824000000     4.066000000     0.630000000
C    -1.754000000     4.700000000     1.351000000
H    -1.839000000     4.926000000     2.410000000
C    -2.708000000     3.788000000    -0.703000000
C    -1.558000000     4.153000000    -1.366000000
H    -1.479000000     3.932000000    -2.428000000
C    -0.412000000     4.581000000    -0.675000000
O     0.720000000     4.743000000    -1.382000000
C     1.771000000     3.771000000    -1.262000000
C     2.448000000     3.529000000    -2.614000000
C     1.665000000     3.581000000    -3.768000000
H     0.629000000     3.907000000    -3.722000000
C     3.791000000     3.182000000    -2.748000000
H     4.388000000     3.195000000    -1.840000000
O     2.799000000     4.236000000    -0.386000000
H     1.396000000     2.814000000    -0.871000000
C    -0.481000000     4.851000000     0.704000000
C     0.767000000     5.429000000     1.454000000
H     0.389000000     5.863000000     2.382000000
H     1.231000000     6.240000000     0.887000000
C     1.686000000     4.293000000     1.799000000
C     2.653000000     3.817000000     0.893000000
C     3.491000000     2.774000000     1.212000000
H     4.248000000     2.389000000     0.533000000
C     3.414000000     2.210000000     2.485000000
O     4.020000000     0.921000000     2.545000000
C     3.351000000    -0.319000000     2.630000000
H     2.365000000    -0.113000000     2.189000000
C     3.980000000    -1.427000000     1.814000000
C     3.978000000    -2.697000000     2.193000000
H     3.714000000    -2.963000000     3.213000000
C     4.500000000    -1.083000000     0.557000000
H     4.631000000    -0.037000000     0.292000000
C     4.932000000    -2.041000000    -0.351000000
O     5.394000000    -1.727000000    -1.555000000
C     4.782000000    -3.381000000    -0.023000000
H     5.083000000    -4.176000000    -0.701000000
C     4.309000000    -3.672000000     1.220000000
O     4.270000000    -5.018000000     1.663000000
C     3.221000000    -5.606000000     2.349000000
C     1.964000000    -5.791000000     1.712000000
H     1.913000000    -5.561000000     0.651000000
C     3.342000000    -6.040000000     3.640000000
H     4.341000000    -5.958000000     4.061000000
C     2.273000000    -6.604000000     4.330000000
H     2.352000000    -6.823000000     5.392000000
C     1.066000000    -6.729000000     3.723000000
H     0.284000000    -7.294000000     4.225000000
C     0.921000000    -6.354000000     2.351000000
O    -0.242000000    -6.611000000     1.709000000
C    -1.264000000    -5.688000000     1.627000000
C    -2.380000000    -6.032000000     0.830000000
H    -2.497000000    -7.037000000     0.434000000
C    -3.408000000    -5.117000000     0.740000000
O    -4.511000000    -5.554000000    -0.001000000
C    -5.235000000    -4.600000000    -0.656000000
C    -4.757000000    -3.859000000    -1.761000000
H    -3.709000000    -3.963000000    -2.030000000
C    -6.580000000    -4.406000000    -0.334000000
H    -7.014000000    -5.092000000     0.389000000
C    -7.454000000    -3.652000000    -1.155000000
H    -8.529000000    -3.681000000    -0.994000000
C    -6.917000000    -2.863000000    -2.243000000
H    -7.506000000    -2.118000000    -2.771000000
C    -5.579000000    -3.042000000    -2.491000000
O    -5.081000000    -2.467000000    -3.656000000
C    -4.344000000    -1.295000000    -3.508000000
C    -3.335000000    -1.060000000    -4.404000000
H    -3.075000000    -1.823000000    -5.132000000
C    -2.470000000    -0.025000000    -4.261000000
O    -1.518000000     0.162000000    -5.277000000
C    -1.294000000     1.363000000    -5.751000000
C    -0.020000000     1.869000000    -5.724000000
H     0.717000000     1.183000000    -5.314000000
C    -2.316000000     2.120000000    -6.226000000
H    -3.335000000     1.778000000    -6.068000000
C    -2.070000000     3.346000000    -6.906000000
H    -2.825000000     3.840000000    -7.514000000
C    -0.760000000     3.862000000    -6.894000000
H    -0.566000000     4.860000000    -7.278000000
C     0.221000000     3.154000000    -6.272000000
O     1.476000000     3.787000000    -6.093000000
C     2.295000000     3.483000000    -5.015000000
C     3.555000000     3.010000000    -5.120000000
H     4.042000000     2.816000000    -6.072000000
C     4.315000000     2.781000000    -3.952000000
O     5.626000000     2.342000000    -4.081000000
C     6.239000000     1.459000000    -3.198000000
C     7.415000000     1.783000000    -2.560000000
H     7.960000000     2.716000000    -2.676000000
C     8.010000000     0.790000000    -1.694000000
H     9.022000000     0.959000000    -1.335000000
C     7.316000000    -0.340000000    -1.311000000
H     7.711000000    -0.967000000    -0.515000000
C     6.087000000    -0.531000000    -1.882000000
C     5.559000000     0.310000000    -2.788000000
H     4.585000000     0.098000000    -3.220000000
C    -0.359000000    -1.419000000    -1.149000000
H    -1.196000000    -2.112000000    -1.170000000
C    -0.491000000    -0.319000000    -0.317000000
H    -1.364000000    -0.147000000     0.306000000
C     0.594000000     0.513000000    -0.059000000
H     0.506000000     1.339000000     0.621000000
C     1.732000000     0.308000000    -0.790000000
H     2.612000000     0.927000000    -0.633000000
C     1.790000000    -0.743000000    -1.712000000
H     2.567000000    -0.823000000    -2.468000000
C     0.763000000    -1.684000000    -1.852000000
C     0.927000000    -2.821000000    -2.739000000
O     1.665000000    -2.853000000    -3.681000000
O     0.477000000    -3.889000000    -2.429000000
O     3.899000000    -3.590000000    -6.665000000
H     4.427000000    -4.385000000    -6.593000000
H     3.977000000    -3.172000000    -5.807000000
O     2.321000000    -7.472000000    -4.221000000
H     2.228000000    -7.588000000    -3.275000000
H     1.921000000    -6.621000000    -4.398000000
O     0.828000000    -4.897000000    -7.821000000
H     0.791000000    -4.396000000    -8.636000000
H     1.763000000    -4.996000000    -7.643000000
O     6.742000000    -1.037000000    -6.352000000
H     6.914000000    -0.958000000    -7.290000000
H     5.807000000    -0.852000000    -6.264000000
O     4.346000000    -3.032000000    -3.901000000
H     3.401000000    -2.980000000    -3.757000000
H     4.730000000    -2.736000000    -3.075000000
O    -1.354000000    -8.374000000    -3.196000000
H    -0.998000000    -7.493000000    -3.082000000
H    -1.029000000    -8.863000000    -2.440000000
O    -0.922000000    -6.963000000    -7.737000000
H    -0.603000000    -6.089000000    -7.512000000
H    -1.596000000    -7.147000000    -7.082000000
O     0.338000000    -6.367000000    -1.386000000
H    -0.353000000    -6.271000000    -0.730000000
H     0.731000000    -5.497000000    -1.449000000
O     4.229000000    -0.338000000    -6.602000000
H     4.214000000     0.119000000    -7.443000000
H     3.307000000    -0.452000000    -6.375000000
O     4.434000000    -6.326000000    -6.337000000
H     4.058000000    -6.911000000    -6.993000000
H     3.849000000    -6.403000000    -5.583000000
O     2.551000000    -1.388000000    -8.960000000
H     2.566000000    -1.942000000    -8.179000000
H     2.192000000    -0.555000000    -8.655000000
O     6.866000000    -3.111000000    -4.821000000
H     7.097000000    -2.378000000    -5.393000000
H     5.929000000    -3.003000000    -4.660000000
O     4.986000000    -6.861000000    -0.342000000
H     4.104000000    -7.221000000    -0.434000000
H     5.006000000    -6.501000000     0.545000000
O    -1.016000000    -5.349000000    -3.988000000
H    -0.893000000    -4.917000000    -4.833000000
H    -0.452000000    -4.863000000    -3.387000000
O    -3.572000000    -6.641000000    -3.368000000
H    -3.167000000    -7.500000000    -3.254000000
H    -2.860000000    -6.079000000    -3.673000000
O     2.717000000    -7.821000000    -1.162000000
H     2.626000000    -8.660000000    -0.711000000
H     1.944000000    -7.322000000    -0.897000000
O     1.758000000    -5.029000000    -5.079000000
H     1.252000000    -4.663000000    -5.805000000
H     1.820000000    -4.314000000    -4.446000000
O     1.432000000    -1.229000000    -5.972000000
H     0.572000000    -1.620000000    -6.127000000
H     1.771000000    -1.691000000    -5.206000000
O    -0.952000000    -2.669000000    -7.004000000
H    -0.745000000    -3.265000000    -7.724000000
H    -1.895000000    -2.768000000    -6.875000000
