215
-1458.65612
C    -3.950000000    -3.836000000     2.037000000
H    -4.681000000    -3.038000000     1.934000000
C    -2.792000000    -3.586000000     2.768000000
C    -1.797000000    -4.496000000     2.813000000
H    -0.923000000    -4.253000000     3.413000000
C    -2.570000000    -2.129000000     3.251000000
O    -3.821000000    -1.416000000     3.535000000
H    -2.017000000    -1.558000000     2.490000000
O    -1.747000000    -2.092000000     4.513000000
C    -0.764000000    -1.088000000     4.682000000
C     0.600000000    -1.473000000     4.553000000
H     0.950000000    -2.465000000     4.279000000
C     1.560000000    -0.457000000     4.465000000
O     2.834000000    -0.778000000     4.022000000
C     1.212000000     0.877000000     4.699000000
C     2.256000000     1.965000000     4.796000000
H     1.893000000     2.667000000     5.550000000
C     2.520000000     2.583000000     3.424000000
C     1.819000000     3.688000000     3.004000000
H     1.048000000     4.149000000     3.616000000
H     3.179000000     1.571000000     5.226000000
C    -0.160000000     1.268000000     4.890000000
H    -0.418000000     2.306000000     5.088000000
C    -1.177000000     0.243000000     4.826000000
C    -2.617000000     0.584000000     5.158000000
H    -2.649000000     1.351000000     5.934000000
H    -3.123000000    -0.317000000     5.514000000
C    -3.328000000     0.908000000     3.842000000
C    -3.292000000     2.218000000     3.237000000
H    -2.790000000     2.994000000     3.809000000
C    -3.920000000    -0.090000000     3.041000000
C    -4.354000000     0.109000000     1.779000000
H    -4.732000000    -0.678000000     1.132000000
C    -4.148000000     1.353000000     1.164000000
O    -4.486000000     1.440000000    -0.174000000
C    -3.471000000     1.731000000    -1.105000000
C    -3.595000000     0.860000000    -2.309000000
C    -3.141000000     1.326000000    -3.575000000
H    -2.649000000     2.292000000    -3.662000000
C    -3.995000000    -0.501000000    -2.138000000
H    -4.207000000    -0.870000000    -1.138000000
O    -3.457000000     3.143000000    -1.416000000
H    -2.509000000     1.549000000    -0.604000000
C    -3.731000000     2.456000000     1.941000000
C    -3.747000000     3.827000000     1.260000000
H    -3.868000000     4.582000000     2.039000000
H    -4.564000000     3.933000000     0.544000000
C    -2.400000000     4.091000000     0.518000000
C    -1.311000000     4.693000000     1.133000000
H    -1.272000000     5.071000000     2.151000000
C    -2.370000000     3.795000000    -0.859000000
C    -1.242000000     4.052000000    -1.642000000
H    -1.279000000     3.601000000    -2.630000000
C    -0.113000000     4.585000000    -0.979000000
O     1.016000000     4.586000000    -1.708000000
C     2.046000000     3.591000000    -1.442000000
C     2.703000000     3.096000000    -2.747000000
C     1.995000000     2.986000000    -3.903000000
H     0.931000000     3.196000000    -3.983000000
C     4.024000000     2.603000000    -2.738000000
H     4.582000000     2.560000000    -1.806000000
O     3.062000000     4.020000000    -0.494000000
H     1.549000000     2.708000000    -1.013000000
C    -0.122000000     4.828000000     0.410000000
C     1.038000000     5.329000000     1.156000000
H     0.684000000     5.834000000     2.057000000
H     1.610000000     6.062000000     0.584000000
C     1.900000000     4.183000000     1.650000000
C     2.948000000     3.685000000     0.842000000
C     3.755000000     2.653000000     1.308000000
H     4.412000000     2.234000000     0.550000000
C     3.535000000     2.109000000     2.583000000
O     4.004000000     0.804000000     2.714000000
C     3.130000000    -0.282000000     2.668000000
H     2.198000000     0.060000000     2.195000000
C     3.752000000    -1.363000000     1.704000000
C     3.059000000    -2.575000000     1.481000000
H     2.149000000    -2.715000000     2.058000000
C     4.839000000    -1.061000000     0.921000000
H     5.481000000    -0.196000000     1.071000000
C     5.151000000    -1.932000000    -0.117000000
O     6.387000000    -1.805000000    -0.739000000
C     4.445000000    -3.086000000    -0.392000000
H     4.691000000    -3.722000000    -1.238000000
C     3.396000000    -3.423000000     0.400000000
O     2.710000000    -4.619000000     0.137000000
C     2.266000000    -5.386000000     1.215000000
C     0.905000000    -5.761000000     1.193000000
H     0.258000000    -5.436000000     0.382000000
C     3.102000000    -5.885000000     2.255000000
H     4.162000000    -5.648000000     2.285000000
C     2.556000000    -6.717000000     3.272000000
H     3.172000000    -7.134000000     4.065000000
C     1.223000000    -6.985000000     3.270000000
H     0.773000000    -7.635000000     4.016000000
C     0.399000000    -6.434000000     2.327000000
O    -0.942000000    -6.765000000     2.318000000
C    -1.943000000    -5.779000000     2.202000000
C    -3.113000000    -6.065000000     1.499000000
H    -3.302000000    -6.985000000     0.951000000
C    -4.129000000    -5.108000000     1.495000000
O    -5.199000000    -5.376000000     0.687000000
C    -5.753000000    -4.583000000    -0.358000000
C    -4.950000000    -3.995000000    -1.297000000
H    -3.904000000    -4.253000000    -1.445000000
C    -7.104000000    -4.278000000    -0.322000000
H    -7.766000000    -4.763000000     0.390000000
C    -7.559000000    -3.256000000    -1.148000000
H    -8.619000000    -3.016000000    -1.124000000
C    -6.753000000    -2.654000000    -2.100000000
H    -7.119000000    -1.929000000    -2.823000000
C    -5.481000000    -3.060000000    -2.174000000
O    -4.654000000    -2.522000000    -3.147000000
C    -4.165000000    -1.295000000    -3.261000000
C    -3.766000000    -0.780000000    -4.471000000
H    -3.943000000    -1.515000000    -5.251000000
C    -3.299000000     0.518000000    -4.676000000
O    -2.881000000     0.872000000    -5.951000000
C    -1.946000000     1.862000000    -6.169000000
C    -0.566000000     1.506000000    -6.157000000
H    -0.297000000     0.479000000    -5.924000000
C    -2.272000000     3.246000000    -6.332000000
H    -3.267000000     3.640000000    -6.141000000
C    -1.269000000     4.231000000    -6.591000000
H    -1.435000000     5.270000000    -6.863000000
C     0.073000000     3.801000000    -6.563000000
H     0.853000000     4.534000000    -6.754000000
C     0.408000000     2.496000000    -6.329000000
O     1.745000000     2.175000000    -6.172000000
C     2.457000000     2.253000000    -4.978000000
C     3.783000000     1.799000000    -4.964000000
H     4.167000000     1.513000000    -5.940000000
C     4.628000000     2.087000000    -3.885000000
O     5.978000000     1.787000000    -3.877000000
C     6.635000000     1.175000000    -2.866000000
C     7.994000000     1.372000000    -2.833000000
H     8.480000000     2.076000000    -3.504000000
C     8.788000000     0.652000000    -1.894000000
H     9.850000000     0.876000000    -1.836000000
C     8.177000000    -0.346000000    -1.184000000
H     8.849000000    -0.973000000    -0.603000000
C     6.836000000    -0.724000000    -1.334000000
C     6.069000000     0.029000000    -2.195000000
H     5.053000000    -0.330000000    -2.342000000
C    -0.855000000    -2.219000000    -0.642000000
H    -1.652000000    -2.937000000    -0.822000000
C    -0.994000000    -1.112000000     0.223000000
H    -1.901000000    -0.946000000     0.799000000
C    -0.011000000    -0.177000000     0.377000000
H    -0.095000000     0.554000000     1.098000000
C     1.200000000    -0.317000000    -0.292000000
H     1.979000000     0.418000000    -0.107000000
C     1.308000000    -1.349000000    -1.173000000
H     2.251000000    -1.382000000    -1.713000000
C     0.362000000    -2.363000000    -1.348000000
C     0.517000000    -3.408000000    -2.425000000
O     1.395000000    -3.219000000    -3.233000000
O    -0.312000000    -4.347000000    -2.510000000
O     3.971000000    -2.870000000    -3.746000000
H     3.975000000    -3.424000000    -4.526000000
H     3.082000000    -2.950000000    -3.400000000
O    -2.357000000    -7.826000000    -6.807000000
H    -2.591000000    -7.808000000    -5.879000000
H    -2.807000000    -7.069000000    -7.182000000
O     4.607000000    -7.595000000    -5.157000000
H     3.989000000    -8.304000000    -4.980000000
H     4.773000000    -7.202000000    -4.300000000
O     1.663000000    -1.638000000    -5.638000000
H     2.396000000    -2.109000000    -6.033000000
H     1.605000000    -1.987000000    -4.748000000
O    -2.342000000    -8.307000000    -1.475000000
H    -3.121000000    -8.425000000    -0.932000000
H    -1.853000000    -9.124000000    -1.373000000
O     0.022000000    -6.976000000    -1.503000000
H    -0.172000000    -6.106000000    -1.851000000
H    -0.821000000    -7.428000000    -1.505000000
O     3.709000000    -2.903000000    -7.704000000
H     4.642000000    -2.811000000    -7.511000000
H     3.645000000    -3.727000000    -8.187000000
O     3.403000000    -5.183000000    -5.860000000
H     2.468000000    -5.168000000    -5.653000000
H     3.690000000    -6.061000000    -5.608000000
O     2.367000000    -0.656000000    -8.014000000
H     1.804000000    -0.653000000    -7.240000000
H     2.886000000    -1.455000000    -7.929000000
O     5.213000000    -6.765000000    -1.406000000
H     5.062000000    -7.318000000    -0.640000000
H     4.385000000    -6.791000000    -1.887000000
O     6.925000000    -3.053000000    -3.404000000
H     6.901000000    -3.771000000    -4.037000000
H     6.007000000    -2.899000000    -3.182000000
O     3.809000000    -8.830000000     0.302000000
H     3.025000000    -8.647000000    -0.216000000
H     3.504000000    -9.409000000     1.000000000
O     2.983000000    -5.808000000    -2.608000000
H     2.124000000    -5.667000000    -2.208000000
H     3.192000000    -4.972000000    -3.025000000
O     0.748000000    -4.817000000    -5.260000000
H     0.890000000    -4.181000000    -4.559000000
H    -0.150000000    -5.121000000    -5.129000000
O    -2.611000000    -4.790000000    -3.743000000
H    -2.776000000    -4.051000000    -4.328000000
H    -1.756000000    -4.604000000    -3.356000000
O    -3.035000000    -7.476000000    -4.011000000
H    -2.768000000    -7.748000000    -3.133000000
H    -2.912000000    -6.527000000    -4.016000000
O     1.780000000    -9.122000000    -1.566000000
H     1.148000000    -8.405000000    -1.524000000
H     2.106000000    -9.102000000    -2.466000000
O    -5.694000000    -5.152000000    -5.307000000
H    -5.225000000    -4.883000000    -4.517000000
H    -5.004000000    -5.356000000    -5.938000000
O    -0.433000000    -3.003000000    -7.336000000
H     0.059000000    -2.473000000    -6.708000000
H    -0.175000000    -3.904000000    -7.143000000
