215
-1465.04242
C    -4.186000000    -2.903000000     1.154000000
H    -4.446000000    -2.031000000     0.560000000
C    -3.616000000    -2.727000000     2.416000000
C    -3.230000000    -3.888000000     3.125000000
H    -2.847000000    -3.904000000     4.142000000
C    -3.289000000    -1.263000000     2.940000000
O    -4.543000000    -0.451000000     2.790000000
H    -2.618000000    -0.794000000     2.205000000
O    -2.813000000    -1.224000000     4.274000000
C    -1.731000000    -0.550000000     4.643000000
C    -0.450000000    -1.145000000     4.580000000
H    -0.359000000    -2.225000000     4.503000000
C     0.678000000    -0.385000000     4.556000000
O     1.779000000    -1.083000000     4.360000000
C     0.579000000     0.981000000     4.740000000
C     1.776000000     1.820000000     4.938000000
H     1.566000000     2.612000000     5.659000000
C     2.299000000     2.202000000     3.522000000
C     1.937000000     3.452000000     2.987000000
H     1.313000000     4.172000000     3.510000000
H     2.530000000     1.143000000     5.346000000
C    -0.663000000     1.566000000     4.849000000
H    -0.806000000     2.643000000     4.881000000
C    -1.850000000     0.819000000     4.755000000
C    -3.167000000     1.528000000     4.536000000
H    -3.012000000     2.438000000     5.120000000
H    -3.883000000     0.909000000     5.082000000
C    -3.523000000     1.788000000     3.067000000
C    -3.165000000     2.973000000     2.514000000
H    -2.646000000     3.698000000     3.136000000
C    -4.260000000     0.834000000     2.315000000
C    -4.662000000     1.141000000     1.000000000
H    -5.298000000     0.451000000     0.450000000
C    -3.978000000     2.260000000     0.352000000
O    -4.054000000     2.362000000    -1.013000000
C    -2.920000000     2.607000000    -1.834000000
C    -3.113000000     1.830000000    -3.158000000
C    -2.810000000     2.443000000    -4.396000000
H    -2.524000000     3.489000000    -4.474000000
C    -3.276000000     0.448000000    -3.055000000
H    -3.421000000    -0.122000000    -2.141000000
O    -2.596000000     3.959000000    -2.114000000
H    -2.026000000     2.168000000    -1.365000000
C    -3.277000000     3.171000000     1.153000000
C    -2.868000000     4.577000000     0.705000000
H    -2.863000000     5.271000000     1.548000000
H    -3.664000000     4.915000000     0.039000000
C    -1.563000000     4.720000000    -0.035000000
C    -0.409000000     5.065000000     0.646000000
H    -0.491000000     5.290000000     1.707000000
C    -1.479000000     4.505000000    -1.389000000
C    -0.192000000     4.424000000    -2.031000000
H    -0.207000000     3.987000000    -3.027000000
C     0.968000000     4.735000000    -1.316000000
O     2.153000000     4.242000000    -1.832000000
C     2.531000000     2.926000000    -1.350000000
C     3.131000000     2.081000000    -2.497000000
C     2.411000000     1.925000000    -3.638000000
H     1.594000000     2.602000000    -3.876000000
C     4.273000000     1.266000000    -2.234000000
H     4.882000000     1.358000000    -1.338000000
O     3.510000000     3.123000000    -0.277000000
H     1.610000000     2.429000000    -1.013000000
C     0.861000000     5.039000000     0.037000000
C     2.054000000     5.108000000     1.029000000
H     1.923000000     5.927000000     1.740000000
H     2.999000000     5.409000000     0.571000000
C     2.302000000     3.778000000     1.634000000
C     3.161000000     2.881000000     1.017000000
C     3.552000000     1.713000000     1.630000000
H     4.122000000     1.016000000     1.021000000
C     3.146000000     1.350000000     2.877000000
O     3.419000000     0.126000000     3.315000000
C     2.412000000    -0.876000000     3.103000000
H     1.692000000    -0.436000000     2.397000000
C     2.920000000    -2.106000000     2.376000000
C     2.191000000    -3.302000000     2.356000000
H     1.184000000    -3.317000000     2.765000000
C     4.172000000    -2.042000000     1.755000000
H     4.721000000    -1.105000000     1.779000000
C     4.665000000    -3.277000000     1.234000000
O     5.965000000    -3.250000000     0.821000000
C     3.945000000    -4.490000000     1.261000000
H     4.276000000    -5.334000000     0.661000000
C     2.703000000    -4.419000000     1.826000000
O     1.922000000    -5.572000000     1.577000000
C     1.019000000    -6.016000000     2.480000000
C    -0.354000000    -5.810000000     2.303000000
H    -0.760000000    -5.231000000     1.477000000
C     1.517000000    -6.784000000     3.551000000
H     2.566000000    -7.065000000     3.582000000
C     0.605000000    -7.282000000     4.472000000
H     1.030000000    -7.816000000     5.318000000
C    -0.751000000    -7.170000000     4.245000000
H    -1.499000000    -7.438000000     4.986000000
C    -1.246000000    -6.388000000     3.196000000
O    -2.609000000    -6.251000000     3.081000000
C    -3.312000000    -5.155000000     2.509000000
C    -3.856000000    -5.247000000     1.300000000
H    -3.800000000    -6.166000000     0.723000000
C    -4.386000000    -4.155000000     0.639000000
O    -4.723000000    -4.496000000    -0.659000000
C    -5.135000000    -3.631000000    -1.687000000
C    -4.085000000    -2.960000000    -2.401000000
H    -3.064000000    -3.158000000    -2.083000000
C    -6.433000000    -3.305000000    -1.823000000
H    -7.174000000    -3.747000000    -1.161000000
C    -6.840000000    -2.404000000    -2.842000000
H    -7.858000000    -2.053000000    -2.993000000
C    -5.855000000    -1.848000000    -3.626000000
H    -6.132000000    -1.035000000    -4.291000000
C    -4.483000000    -2.111000000    -3.422000000
O    -3.524000000    -1.623000000    -4.268000000
C    -3.265000000    -0.309000000    -4.291000000
C    -3.156000000     0.325000000    -5.504000000
H    -3.184000000    -0.318000000    -6.380000000
C    -2.752000000     1.656000000    -5.532000000
O    -2.234000000     2.183000000    -6.615000000
C    -0.892000000     2.547000000    -6.600000000
C     0.066000000     1.606000000    -6.347000000
H    -0.183000000     0.563000000    -6.167000000
C    -0.560000000     3.896000000    -6.864000000
H    -1.284000000     4.707000000    -6.904000000
C     0.791000000     4.235000000    -6.781000000
H     1.027000000     5.278000000    -6.980000000
C     1.784000000     3.276000000    -6.593000000
H     2.831000000     3.563000000    -6.536000000
C     1.420000000     2.019000000    -6.265000000
O     2.387000000     1.080000000    -5.951000000
C     2.931000000     1.102000000    -4.668000000
C     4.100000000     0.416000000    -4.455000000
H     4.488000000    -0.259000000    -5.214000000
C     4.736000000     0.462000000    -3.271000000
O     5.959000000    -0.312000000    -3.119000000
C     6.461000000    -0.691000000    -1.804000000
C     7.716000000    -0.209000000    -1.475000000
H     8.255000000     0.492000000    -2.108000000
C     8.317000000    -0.631000000    -0.246000000
H     9.315000000    -0.303000000     0.036000000
C     7.681000000    -1.601000000     0.535000000
H     8.199000000    -2.023000000     1.392000000
C     6.493000000    -2.174000000     0.101000000
C     5.819000000    -1.597000000    -0.963000000
H     4.888000000    -2.064000000    -1.276000000
C    -0.203000000    -1.880000000    -0.043000000
H    -0.286000000    -2.732000000     0.628000000
C    -0.150000000    -0.616000000     0.563000000
H    -0.212000000    -0.449000000     1.635000000
C    -0.094000000     0.507000000    -0.238000000
H    -0.132000000     1.479000000     0.252000000
C    -0.037000000     0.351000000    -1.655000000
H     0.048000000     1.210000000    -2.315000000
C    -0.187000000    -0.894000000    -2.221000000
H    -0.488000000    -0.892000000    -3.265000000
C    -0.192000000    -2.013000000    -1.424000000
C    -0.328000000    -3.344000000    -2.011000000
O     0.030000000    -3.518000000    -3.168000000
O    -0.702000000    -4.323000000    -1.355000000
O    -2.745000000    -8.716000000     0.939000000
H    -1.892000000    -9.072000000     1.186000000
H    -2.547000000    -7.858000000     0.565000000
O     0.675000000    -5.230000000    -5.348000000
H     0.674000000    -4.506000000    -4.721000000
H     0.195000000    -4.893000000    -6.104000000
O    -0.952000000    -4.805000000    -7.613000000
H    -0.708000000    -3.916000000    -7.872000000
H    -1.746000000    -4.991000000    -8.114000000
O    -4.290000000    -6.954000000    -1.945000000
H    -4.906000000    -7.287000000    -1.293000000
H    -3.515000000    -6.711000000    -1.439000000
O    -0.404000000    -8.559000000    -2.390000000
H     0.097000000    -8.689000000    -3.195000000
H    -0.627000000    -9.443000000    -2.101000000
O     2.979000000    -4.507000000    -3.361000000
H     2.755000000    -5.201000000    -2.742000000
H     2.147000000    -4.070000000    -3.543000000
O     0.927000000    -8.306000000    -5.185000000
H     1.866000000    -8.297000000    -4.999000000
H     0.669000000    -7.385000000    -5.159000000
O    -3.188000000    -4.245000000    -5.557000000
H    -2.851000000    -4.616000000    -4.742000000
H    -2.938000000    -4.878000000    -6.230000000
O     6.532000000    -4.765000000    -3.632000000
H     5.817000000    -4.191000000    -3.906000000
H     7.206000000    -4.170000000    -3.304000000
O     3.240000000    -4.844000000    -6.481000000
H     3.036000000    -4.686000000    -7.402000000
H     2.388000000    -4.984000000    -6.068000000
O    -0.016000000    -1.309000000    -8.224000000
H     0.881000000    -1.230000000    -8.548000000
H     0.079000000    -1.392000000    -7.275000000
O    -3.701000000    -7.494000000    -4.411000000
H    -2.974000000    -6.873000000    -4.359000000
H    -4.071000000    -7.505000000    -3.529000000
O     1.596000000    -5.904000000    -1.292000000
H     1.715000000    -5.807000000    -0.347000000
H     0.698000000    -5.613000000    -1.451000000
O    -5.063000000    -2.162000000    -6.753000000
H    -4.696000000    -2.677000000    -6.035000000
H    -4.728000000    -2.582000000    -7.545000000
O    -1.697000000    -6.694000000    -0.714000000
H    -1.155000000    -7.267000000    -1.256000000
H    -1.517000000    -5.813000000    -1.042000000
O    -0.636000000    -2.014000000    -5.565000000
H    -1.527000000    -2.363000000    -5.600000000
H    -0.239000000    -2.445000000    -4.808000000
O    -1.606000000    -5.618000000    -3.690000000
H    -1.335000000    -5.050000000    -2.969000000
H    -0.852000000    -5.633000000    -4.280000000
O     2.369000000    -8.631000000    -1.006000000
H     1.519000000    -9.034000000    -1.184000000
H     2.238000000    -7.702000000    -1.194000000
O     4.649000000    -3.183000000    -4.917000000
H     3.929000000    -3.301000000    -4.297000000
H     4.523000000    -3.875000000    -5.566000000
