215
-1437.54381
C    -4.804000000    -3.052000000     1.582000000
H    -5.486000000    -2.252000000     1.305000000
C    -3.606000000    -2.890000000     2.303000000
C    -2.846000000    -3.985000000     2.599000000
H    -1.904000000    -3.874000000     3.129000000
C    -3.210000000    -1.507000000     2.860000000
O    -4.368000000    -0.691000000     2.910000000
H    -2.535000000    -0.985000000     2.166000000
O    -2.495000000    -1.500000000     4.075000000
C    -1.431000000    -0.656000000     4.321000000
C    -0.125000000    -1.201000000     4.210000000
H    -0.005000000    -2.245000000     3.932000000
C     0.934000000    -0.487000000     4.612000000
O     2.166000000    -1.049000000     4.406000000
C     0.753000000     0.861000000     4.786000000
C     1.998000000     1.657000000     4.919000000
H     1.812000000     2.436000000     5.662000000
C     2.478000000     2.185000000     3.579000000
C     1.977000000     3.416000000     3.040000000
H     1.284000000     4.021000000     3.619000000
H     2.796000000     1.108000000     5.422000000
C    -0.550000000     1.432000000     4.928000000
H    -0.737000000     2.429000000     5.319000000
C    -1.685000000     0.691000000     4.660000000
C    -3.153000000     1.294000000     4.658000000
H    -3.076000000     2.258000000     5.164000000
H    -3.819000000     0.630000000     5.213000000
C    -3.574000000     1.571000000     3.169000000
C    -3.279000000     2.871000000     2.579000000
H    -2.806000000     3.624000000     3.204000000
C    -4.089000000     0.563000000     2.378000000
C    -4.353000000     0.789000000     1.057000000
H    -4.632000000    -0.060000000     0.438000000
C    -4.035000000     2.026000000     0.468000000
O    -4.156000000     2.124000000    -0.870000000
C    -2.843000000     2.085000000    -1.591000000
C    -2.943000000     1.243000000    -2.867000000
C    -2.168000000     1.461000000    -3.964000000
H    -1.686000000     2.431000000    -4.055000000
C    -3.698000000     0.029000000    -2.840000000
H    -4.249000000    -0.143000000    -1.919000000
O    -2.405000000     3.362000000    -1.994000000
H    -2.014000000     1.658000000    -1.008000000
C    -3.481000000     3.085000000     1.239000000
C    -3.143000000     4.410000000     0.574000000
H    -3.293000000     5.171000000     1.343000000
H    -3.789000000     4.603000000    -0.285000000
C    -1.714000000     4.384000000     0.043000000
C    -0.671000000     4.784000000     0.892000000
H    -0.918000000     5.100000000     1.902000000
C    -1.406000000     3.973000000    -1.213000000
C    -0.131000000     4.082000000    -1.734000000
H     0.007000000     3.806000000    -2.776000000
C     0.886000000     4.427000000    -0.916000000
O     2.111000000     4.221000000    -1.488000000
C     2.844000000     3.000000000    -1.217000000
C     3.616000000     2.497000000    -2.466000000
C     3.033000000     2.671000000    -3.691000000
H     2.174000000     3.327000000    -3.808000000
C     4.907000000     1.867000000    -2.357000000
H     5.353000000     1.802000000    -1.368000000
O     3.760000000     3.361000000    -0.195000000
H     2.118000000     2.237000000    -0.899000000
C     0.621000000     4.782000000     0.375000000
C     1.864000000     5.113000000     1.271000000
H     1.540000000     5.620000000     2.182000000
H     2.636000000     5.649000000     0.714000000
C     2.409000000     3.821000000     1.765000000
C     3.401000000     3.142000000     1.084000000
C     3.872000000     1.905000000     1.688000000
H     4.621000000     1.402000000     1.081000000
C     3.351000000     1.434000000     2.850000000
O     3.691000000     0.123000000     3.145000000
C     2.680000000    -0.839000000     3.072000000
H     1.898000000    -0.476000000     2.390000000
C     3.161000000    -2.090000000     2.211000000
C     2.524000000    -3.329000000     2.345000000
H     1.623000000    -3.386000000     2.950000000
C     4.187000000    -1.986000000     1.231000000
H     4.832000000    -1.125000000     1.079000000
C     4.551000000    -3.061000000     0.469000000
O     5.588000000    -2.968000000    -0.461000000
C     3.850000000    -4.254000000     0.558000000
H     4.144000000    -5.027000000    -0.147000000
C     2.779000000    -4.368000000     1.414000000
O     2.094000000    -5.553000000     1.465000000
C     1.076000000    -5.921000000     2.315000000
C    -0.282000000    -5.930000000     1.971000000
H    -0.617000000    -5.472000000     1.045000000
C     1.503000000    -6.446000000     3.561000000
H     2.564000000    -6.438000000     3.796000000
C     0.556000000    -7.044000000     4.406000000
H     0.935000000    -7.333000000     5.383000000
C    -0.776000000    -7.043000000     4.028000000
H    -1.513000000    -7.545000000     4.649000000
C    -1.154000000    -6.442000000     2.867000000
O    -2.485000000    -6.423000000     2.498000000
C    -3.239000000    -5.281000000     2.212000000
C    -4.293000000    -5.414000000     1.302000000
H    -4.521000000    -6.400000000     0.907000000
C    -4.991000000    -4.310000000     0.949000000
O    -5.853000000    -4.494000000    -0.110000000
C    -6.182000000    -3.489000000    -1.021000000
C    -5.284000000    -3.310000000    -2.071000000
H    -4.439000000    -3.991000000    -2.139000000
C    -7.345000000    -2.696000000    -0.910000000
H    -8.091000000    -2.790000000    -0.125000000
C    -7.588000000    -1.679000000    -1.848000000
H    -8.437000000    -1.009000000    -1.736000000
C    -6.683000000    -1.479000000    -2.902000000
H    -6.920000000    -0.742000000    -3.665000000
C    -5.535000000    -2.308000000    -3.050000000
O    -4.522000000    -2.040000000    -3.947000000
C    -3.691000000    -0.872000000    -3.904000000
C    -2.831000000    -0.652000000    -4.976000000
H    -2.887000000    -1.356000000    -5.802000000
C    -2.099000000     0.557000000    -5.021000000
O    -1.575000000     0.986000000    -6.245000000
C    -0.649000000     2.034000000    -6.376000000
C     0.689000000     1.733000000    -6.053000000
H     0.857000000     0.803000000    -5.516000000
C    -0.866000000     3.222000000    -7.164000000
H    -1.868000000     3.368000000    -7.559000000
C     0.183000000     4.056000000    -7.631000000
H     0.117000000     4.939000000    -8.262000000
C     1.434000000     3.789000000    -7.078000000
H     2.277000000     4.420000000    -7.349000000
C     1.716000000     2.675000000    -6.336000000
O     3.018000000     2.415000000    -6.037000000
C     3.685000000     2.202000000    -4.831000000
C     4.863000000     1.448000000    -4.771000000
H     5.316000000     1.043000000    -5.672000000
C     5.482000000     1.293000000    -3.498000000
O     6.683000000     0.707000000    -3.388000000
C     6.930000000    -0.046000000    -2.268000000
C     7.899000000     0.383000000    -1.359000000
H     8.441000000     1.280000000    -1.649000000
C     8.067000000    -0.239000000    -0.122000000
H     8.861000000     0.120000000     0.527000000
C     7.331000000    -1.445000000     0.157000000
H     7.352000000    -1.924000000     1.133000000
C     6.373000000    -1.902000000    -0.758000000
C     6.107000000    -1.134000000    -1.909000000
H     5.318000000    -1.442000000    -2.590000000
C    -1.246000000    -1.550000000    -0.471000000
H    -2.238000000    -1.987000000    -0.389000000
C    -0.918000000    -0.371000000     0.246000000
H    -1.619000000     0.240000000     0.808000000
C     0.349000000     0.167000000     0.150000000
H     0.553000000     0.988000000     0.766000000
C     1.335000000    -0.567000000    -0.537000000
H     2.373000000    -0.243000000    -0.560000000
C     1.012000000    -1.745000000    -1.217000000
H     1.710000000    -2.298000000    -1.840000000
C    -0.289000000    -2.223000000    -1.202000000
C    -0.638000000    -3.548000000    -1.869000000
O     0.289000000    -4.212000000    -2.346000000
O    -1.793000000    -3.907000000    -1.991000000
O     2.745000000    -5.053000000    -2.943000000
H     1.935000000    -4.927000000    -2.450000000
H     2.847000000    -4.245000000    -3.447000000
O    -0.540000000    -8.846000000    -5.371000000
H    -0.874000000    -9.310000000    -6.139000000
H    -1.325000000    -8.553000000    -4.908000000
O    -2.415000000    -9.189000000    -1.235000000
H    -3.322000000    -9.496000000    -1.223000000
H    -2.421000000    -8.405000000    -0.686000000
O    -0.751000000    -6.575000000    -7.941000000
H    -0.939000000    -7.387000000    -7.470000000
H    -1.016000000    -5.882000000    -7.338000000
O     4.290000000    -3.173000000    -4.618000000
H     4.545000000    -4.090000000    -4.723000000
H     5.015000000    -2.678000000    -4.998000000
O    -4.622000000    -7.152000000    -5.118000000
H    -4.680000000    -7.866000000    -4.483000000
H    -3.683000000    -6.988000000    -5.208000000
O    -0.746000000    -2.869000000    -7.893000000
H    -0.599000000    -2.503000000    -7.021000000
H    -1.544000000    -3.391000000    -7.803000000
O     0.109000000    -5.192000000    -5.180000000
H     0.093000000    -5.168000000    -4.223000000
H     1.014000000    -5.418000000    -5.399000000
O     2.437000000    -1.594000000    -5.763000000
H     3.147000000    -1.992000000    -5.259000000
H     1.644000000    -1.810000000    -5.273000000
O    -2.655000000    -4.635000000    -4.594000000
H    -1.912000000    -5.178000000    -4.857000000
H    -2.380000000    -4.236000000    -3.769000000
O     4.504000000    -6.989000000    -4.020000000
H     4.740000000    -6.687000000    -4.897000000
H     3.827000000    -6.377000000    -3.730000000
O     1.806000000    -8.432000000    -4.033000000
H     1.655000000    -7.987000000    -3.199000000
H     1.044000000    -8.207000000    -4.566000000
O    -2.199000000    -7.743000000    -3.607000000
H    -2.271000000    -8.524000000    -3.059000000
H    -2.596000000    -7.046000000    -3.084000000
O     0.133000000    -6.815000000    -1.380000000
H    -0.709000000    -6.572000000    -1.765000000
H     0.647000000    -6.008000000    -1.402000000
O     3.003000000    -7.951000000     0.244000000
H     2.716000000    -7.119000000     0.621000000
H     3.812000000    -7.736000000    -0.220000000
O    -3.075000000    -6.043000000    -1.582000000
H    -3.116000000    -5.877000000    -0.641000000
H    -2.536000000    -5.332000000    -1.928000000
O    -0.119000000    -2.338000000    -5.106000000
H    -0.213000000    -2.535000000    -4.174000000
H    -0.155000000    -3.192000000    -5.536000000
O    -5.627000000    -4.651000000    -5.269000000
H    -5.312000000    -4.077000000    -4.571000000
H    -5.198000000    -5.490000000    -5.100000000
O     1.292000000    -9.666000000    -0.979000000
H     0.529000000    -9.116000000    -1.156000000
H     1.909000000    -9.083000000    -0.536000000
