215
-1483.99727
C     2.518000000     1.605000000    -4.427000000
H     2.852000000     0.606000000    -4.697000000
C     2.870000000     2.020000000    -3.152000000
C     2.357000000     3.236000000    -2.624000000
H     2.610000000     3.628000000    -1.642000000
C     3.593000000     1.007000000    -2.218000000
O     3.928000000    -0.268000000    -2.735000000
H     2.856000000     0.799000000    -1.428000000
O     4.706000000     1.589000000    -1.511000000
C     4.643000000     1.216000000    -0.192000000
C     4.124000000     2.200000000     0.667000000
H     3.986000000     3.228000000     0.341000000
C     3.789000000     1.904000000     2.003000000
O     3.024000000     2.771000000     2.749000000
C     4.051000000     0.658000000     2.494000000
C     3.733000000     0.261000000     3.924000000
H     4.521000000    -0.379000000     4.329000000
C     2.375000000    -0.362000000     4.097000000
C     2.146000000    -1.697000000     4.165000000
H     2.971000000    -2.400000000     4.082000000
H     3.879000000     1.135000000     4.562000000
C     4.655000000    -0.340000000     1.660000000
H     4.980000000    -1.272000000     2.117000000
C     4.899000000    -0.083000000     0.342000000
C     5.489000000    -1.231000000    -0.462000000
H     6.063000000    -1.857000000     0.225000000
H     6.214000000    -0.936000000    -1.223000000
C     4.327000000    -2.001000000    -1.081000000
C     3.849000000    -3.185000000    -0.525000000
H     4.475000000    -3.550000000     0.285000000
C     3.575000000    -1.418000000    -2.101000000
C     2.541000000    -2.097000000    -2.743000000
H     2.003000000    -1.633000000    -3.565000000
C     2.164000000    -3.364000000    -2.201000000
O     1.030000000    -4.004000000    -2.598000000
C    -0.263000000    -3.661000000    -2.013000000
C    -1.345000000    -3.312000000    -3.057000000
C    -2.671000000    -3.478000000    -2.703000000
H    -2.959000000    -3.966000000    -1.775000000
C    -1.059000000    -2.549000000    -4.252000000
H    -0.009000000    -2.305000000    -4.389000000
O    -0.622000000    -4.748000000    -1.185000000
H    -0.068000000    -2.804000000    -1.351000000
C     2.786000000    -3.884000000    -1.055000000
C     2.281000000    -5.188000000    -0.367000000
H     3.052000000    -5.551000000     0.315000000
H     2.040000000    -5.949000000    -1.113000000
C     1.141000000    -4.808000000     0.570000000
C     1.355000000    -4.651000000     1.963000000
H     2.392000000    -4.787000000     2.257000000
C    -0.231000000    -4.718000000     0.131000000
C    -1.235000000    -4.363000000     1.048000000
H    -2.271000000    -4.283000000     0.730000000
C    -0.898000000    -4.093000000     2.303000000
O    -1.930000000    -3.649000000     3.064000000
C    -2.101000000    -2.231000000     3.112000000
C    -3.474000000    -1.657000000     2.917000000
C    -4.452000000    -2.377000000     2.243000000
H    -4.175000000    -3.341000000     1.824000000
C    -3.706000000    -0.292000000     3.274000000
H    -2.875000000     0.276000000     3.683000000
O    -1.558000000    -1.832000000     4.410000000
H    -1.552000000    -1.852000000     2.237000000
C     0.388000000    -4.213000000     2.828000000
C     0.644000000    -3.786000000     4.291000000
H     1.564000000    -4.287000000     4.598000000
H    -0.168000000    -4.124000000     4.939000000
C     0.839000000    -2.291000000     4.248000000
C    -0.213000000    -1.436000000     4.282000000
C    -0.037000000    -0.047000000     4.173000000
H    -0.920000000     0.586000000     4.175000000
C     1.243000000     0.492000000     4.157000000
O     1.367000000     1.849000000     4.201000000
C     1.657000000     2.480000000     2.938000000
H     1.207000000     1.802000000     2.198000000
C     0.874000000     3.737000000     2.819000000
C     1.459000000     4.839000000     2.137000000
H     2.460000000     4.744000000     1.725000000
C    -0.404000000     3.830000000     3.365000000
H    -0.946000000     3.080000000     3.936000000
C    -1.103000000     5.060000000     3.216000000
O    -2.392000000     5.217000000     3.707000000
C    -0.514000000     6.099000000     2.524000000
H    -0.970000000     7.081000000     2.424000000
C     0.739000000     5.981000000     1.976000000
O     1.435000000     6.995000000     1.437000000
C     1.965000000     6.903000000     0.179000000
C     1.266000000     6.301000000    -0.837000000
H     0.257000000     5.927000000    -0.684000000
C     3.294000000     7.378000000    -0.034000000
H     3.748000000     7.919000000     0.792000000
C     3.872000000     7.224000000    -1.292000000
H     4.883000000     7.552000000    -1.523000000
C     3.190000000     6.507000000    -2.303000000
H     3.680000000     6.350000000    -3.261000000
C     1.884000000     6.038000000    -2.055000000
O     1.253000000     5.300000000    -3.067000000
C     1.783000000     4.104000000    -3.542000000
C     1.519000000     3.722000000    -4.824000000
H     0.996000000     4.334000000    -5.554000000
C     1.834000000     2.460000000    -5.291000000
O     1.461000000     2.130000000    -6.603000000
C     1.018000000     0.862000000    -6.909000000
C    -0.200000000     0.387000000    -6.341000000
H    -0.750000000     0.902000000    -5.557000000
C     1.557000000     0.110000000    -7.955000000
H     2.371000000     0.613000000    -8.471000000
C     1.002000000    -1.124000000    -8.299000000
H     1.478000000    -1.608000000    -9.148000000
C    -0.084000000    -1.665000000    -7.627000000
H    -0.492000000    -2.640000000    -7.881000000
C    -0.699000000    -0.832000000    -6.664000000
O    -1.889000000    -1.163000000    -6.145000000
C    -2.103000000    -1.951000000    -5.001000000
C    -3.407000000    -2.225000000    -4.677000000
H    -4.239000000    -1.864000000    -5.276000000
C    -3.697000000    -2.997000000    -3.542000000
O    -5.056000000    -3.158000000    -3.260000000
C    -5.508000000    -3.621000000    -2.053000000
C    -5.758000000    -2.764000000    -0.960000000
H    -5.630000000    -1.686000000    -1.004000000
C    -5.703000000    -5.002000000    -1.895000000
H    -5.349000000    -5.657000000    -2.686000000
C    -6.265000000    -5.520000000    -0.695000000
H    -6.418000000    -6.594000000    -0.620000000
C    -6.623000000    -4.621000000     0.323000000
H    -7.011000000    -4.929000000     1.290000000
C    -6.331000000    -3.260000000     0.186000000
O    -6.584000000    -2.403000000     1.164000000
C    -5.690000000    -1.844000000     2.032000000
C    -5.927000000    -0.476000000     2.287000000
H    -6.860000000    -0.022000000     1.963000000
C    -5.006000000     0.256000000     2.981000000
O    -5.357000000     1.564000000     3.304000000
C    -4.591000000     2.384000000     4.109000000
C    -4.439000000     2.090000000     5.463000000
H    -4.898000000     1.179000000     5.839000000
C    -3.595000000     2.890000000     6.242000000
H    -3.444000000     2.586000000     7.274000000
C    -2.921000000     3.992000000     5.666000000
H    -2.273000000     4.731000000     6.131000000
C    -3.147000000     4.245000000     4.331000000
C    -3.916000000     3.487000000     3.512000000
H    -4.090000000     3.787000000     2.481000000
C    -2.277000000     0.421000000    -0.513000000
H    -3.284000000     0.301000000    -0.905000000
C    -1.536000000    -0.713000000    -0.307000000
H    -1.977000000    -1.702000000    -0.402000000
C    -0.160000000    -0.627000000     0.067000000
H     0.356000000    -1.557000000     0.145000000
C     0.506000000     0.629000000     0.176000000
H     1.553000000     0.677000000     0.465000000
C    -0.334000000     1.749000000     0.019000000
H     0.099000000     2.739000000     0.135000000
C    -1.680000000     1.695000000    -0.365000000
C    -2.479000000     2.932000000    -0.529000000
O    -1.867000000     3.996000000    -0.596000000
O    -3.707000000     2.842000000    -0.695000000
O    -1.594000000     5.772000000    -2.461000000
H    -0.828000000     5.536000000    -2.983000000
H    -1.644000000     5.091000000    -1.789000000
O    -6.476000000    -0.089000000    -2.974000000
H    -6.249000000    -0.974000000    -3.260000000
H    -6.242000000     0.469000000    -3.715000000
O    -2.078000000     5.672000000    -5.525000000
H    -2.113000000     5.916000000    -4.600000000
H    -1.826000000     4.749000000    -5.520000000
O    -4.142000000     4.545000000    -2.716000000
H    -3.310000000     4.976000000    -2.911000000
H    -3.947000000     3.971000000    -1.975000000
O    -6.146000000     3.870000000    -0.046000000
H    -6.784000000     3.350000000    -0.535000000
H    -5.307000000     3.442000000    -0.216000000
O    -8.615000000     2.894000000    -0.705000000
H    -8.673000000     2.862000000     0.250000000
H    -9.488000000     3.164000000    -0.989000000
O    -6.258000000     6.182000000    -2.624000000
H    -5.603000000     5.504000000    -2.458000000
H    -6.248000000     6.298000000    -3.574000000
O    -7.154000000     5.801000000     1.633000000
H    -7.046000000     4.910000000     1.300000000
H    -6.706000000     6.352000000     0.990000000
O    -6.143000000     7.477000000    -0.223000000
H    -6.186000000     7.069000000    -1.087000000
H    -5.263000000     7.273000000     0.095000000
O    -8.362000000     2.622000000    -3.577000000
H    -9.134000000     3.186000000    -3.611000000
H    -8.081000000     2.656000000    -2.662000000
O    -3.774000000     7.587000000     2.966000000
H    -3.242000000     6.811000000     2.786000000
H    -4.220000000     7.386000000     3.789000000
O    -3.982000000    10.060000000    -1.911000000
H    -3.583000000     9.446000000    -1.294000000
H    -3.244000000    10.549000000    -2.274000000
O    -6.054000000     3.255000000    -4.692000000
H    -5.530000000     3.646000000    -3.993000000
H    -6.900000000     3.073000000    -4.283000000
O    -1.993000000     8.917000000    -0.101000000
H    -1.088000000     9.216000000    -0.186000000
H    -1.919000000     8.012000000     0.202000000
O    -3.584000000     5.938000000     0.414000000
H    -2.827000000     5.435000000     0.113000000
H    -4.341000000     5.449000000     0.089000000
O    -7.913000000     0.090000000    -0.513000000
H    -7.371000000    -0.353000000    -1.166000000
H    -8.318000000     0.815000000    -0.990000000
O    -5.073000000     3.505000000    -7.365000000
H    -5.214000000     4.451000000    -7.361000000
H    -5.317000000     3.222000000    -6.484000000
O    -1.807000000     2.937000000    -3.603000000
H    -1.327000000     2.168000000    -3.295000000
H    -2.728000000     2.682000000    -3.551000000
O    -8.221000000     2.633000000     1.917000000
H    -8.310000000     3.363000000     2.530000000
H    -7.303000000     2.372000000     1.988000000
