215
-1446.61972
C    -4.877000000    -2.781000000     0.671000000
H    -5.387000000    -1.922000000     0.244000000
C    -3.951000000    -2.547000000     1.688000000
C    -3.298000000    -3.674000000     2.218000000
H    -2.489000000    -3.611000000     2.941000000
C    -3.590000000    -1.162000000     2.153000000
O    -4.695000000    -0.271000000     2.089000000
H    -2.862000000    -0.788000000     1.418000000
O    -3.137000000    -1.199000000     3.511000000
C    -2.128000000    -0.382000000     3.989000000
C    -0.909000000    -1.069000000     4.250000000
H    -0.820000000    -2.114000000     3.965000000
C     0.218000000    -0.427000000     4.651000000
O     1.411000000    -1.045000000     4.588000000
C     0.101000000     0.993000000     4.889000000
C     1.372000000     1.849000000     5.082000000
H     1.196000000     2.774000000     5.635000000
C     2.080000000     2.296000000     3.853000000
C     1.781000000     3.599000000     3.269000000
H     0.992000000     4.268000000     3.602000000
H     2.085000000     1.376000000     5.759000000
C    -1.112000000     1.647000000     4.729000000
H    -1.192000000     2.664000000     5.107000000
C    -2.265000000     1.039000000     4.209000000
C    -3.603000000     1.734000000     3.970000000
H    -3.683000000     2.626000000     4.595000000
H    -4.342000000     1.080000000     4.438000000
C    -3.776000000     1.965000000     2.520000000
C    -3.282000000     3.180000000     1.977000000
H    -2.664000000     3.751000000     2.665000000
C    -4.443000000     1.057000000     1.699000000
C    -4.575000000     1.347000000     0.384000000
H    -5.059000000     0.623000000    -0.267000000
C    -3.993000000     2.488000000    -0.236000000
O    -3.803000000     2.640000000    -1.610000000
C    -2.523000000     2.559000000    -2.241000000
C    -2.656000000     1.599000000    -3.478000000
C    -2.003000000     1.866000000    -4.704000000
H    -1.474000000     2.815000000    -4.742000000
C    -3.235000000     0.365000000    -3.311000000
H    -3.724000000     0.099000000    -2.378000000
O    -1.873000000     3.834000000    -2.450000000
H    -1.909000000     1.988000000    -1.530000000
C    -3.430000000     3.478000000     0.606000000
C    -2.754000000     4.753000000     0.096000000
H    -2.971000000     5.550000000     0.810000000
H    -3.258000000     5.049000000    -0.827000000
C    -1.313000000     4.686000000    -0.231000000
C    -0.347000000     5.103000000     0.662000000
H    -0.659000000     5.403000000     1.660000000
C    -0.929000000     4.337000000    -1.577000000
C     0.411000000     4.388000000    -1.960000000
H     0.603000000     4.032000000    -2.969000000
C     1.321000000     4.689000000    -1.005000000
O     2.609000000     4.384000000    -1.375000000
C     3.105000000     3.108000000    -0.908000000
C     3.905000000     2.273000000    -1.909000000
C     3.335000000     2.058000000    -3.174000000
H     2.465000000     2.656000000    -3.433000000
C     5.091000000     1.639000000    -1.585000000
H     5.451000000     1.658000000    -0.559000000
O     3.919000000     3.292000000     0.253000000
H     2.277000000     2.420000000    -0.681000000
C     0.931000000     5.013000000     0.321000000
C     2.054000000     5.250000000     1.340000000
H     1.741000000     5.900000000     2.160000000
H     2.829000000     5.760000000     0.764000000
C     2.392000000     3.925000000     2.047000000
C     3.302000000     3.080000000     1.471000000
C     3.674000000     1.869000000     2.050000000
H     4.407000000     1.194000000     1.614000000
C     3.014000000     1.488000000     3.210000000
O     3.158000000     0.195000000     3.635000000
C     2.134000000    -0.796000000     3.316000000
H     1.341000000    -0.309000000     2.728000000
C     2.709000000    -2.097000000     2.702000000
C     1.864000000    -3.244000000     2.711000000
H     0.896000000    -3.110000000     3.188000000
C     3.980000000    -2.230000000     2.137000000
H     4.703000000    -1.420000000     2.196000000
C     4.354000000    -3.382000000     1.433000000
O     5.590000000    -3.539000000     0.867000000
C     3.427000000    -4.422000000     1.302000000
H     3.677000000    -5.293000000     0.702000000
C     2.220000000    -4.337000000     1.942000000
O     1.431000000    -5.428000000     1.732000000
C     0.503000000    -5.921000000     2.594000000
C    -0.849000000    -5.677000000     2.218000000
H    -1.039000000    -5.208000000     1.256000000
C     0.751000000    -6.644000000     3.736000000
H     1.774000000    -6.933000000     3.964000000
C    -0.334000000    -7.105000000     4.551000000
H    -0.117000000    -7.662000000     5.459000000
C    -1.661000000    -6.814000000     4.226000000
H    -2.478000000    -7.123000000     4.874000000
C    -1.885000000    -6.117000000     2.996000000
O    -3.225000000    -6.074000000     2.562000000
C    -3.656000000    -4.969000000     1.862000000
C    -4.528000000    -5.154000000     0.830000000
H    -4.680000000    -6.159000000     0.444000000
C    -5.110000000    -4.063000000     0.168000000
O    -6.010000000    -4.164000000    -0.794000000
C    -6.025000000    -3.432000000    -1.953000000
C    -4.851000000    -2.997000000    -2.542000000
H    -3.875000000    -3.288000000    -2.162000000
C    -7.272000000    -2.836000000    -2.341000000
H    -8.203000000    -3.099000000    -1.844000000
C    -7.320000000    -1.881000000    -3.362000000
H    -8.257000000    -1.432000000    -3.679000000
C    -6.143000000    -1.444000000    -4.046000000
H    -6.069000000    -0.664000000    -4.800000000
C    -4.933000000    -2.037000000    -3.522000000
O    -3.749000000    -1.823000000    -4.229000000
C    -3.176000000    -0.527000000    -4.342000000
C    -2.579000000    -0.225000000    -5.587000000
H    -2.518000000    -0.950000000    -6.394000000
C    -1.934000000     0.927000000    -5.724000000
O    -1.168000000     1.160000000    -6.834000000
C     0.187000000     1.612000000    -6.747000000
C     1.188000000     0.946000000    -6.111000000
H     1.041000000     0.036000000    -5.535000000
C     0.435000000     2.893000000    -7.240000000
H    -0.356000000     3.407000000    -7.781000000
C     1.654000000     3.572000000    -7.034000000
H     1.844000000     4.558000000    -7.450000000
C     2.702000000     2.827000000    -6.507000000
H     3.685000000     3.282000000    -6.428000000
C     2.506000000     1.489000000    -6.021000000
O     3.523000000     0.832000000    -5.326000000
C     3.937000000     1.090000000    -4.061000000
C     5.156000000     0.522000000    -3.730000000
H     5.688000000    -0.056000000    -4.482000000
C     5.647000000     0.634000000    -2.420000000
O     6.801000000    -0.051000000    -2.150000000
C     7.054000000    -0.775000000    -0.998000000
C     8.052000000    -0.381000000    -0.108000000
H     8.697000000     0.486000000    -0.225000000
C     8.285000000    -0.979000000     1.121000000
H     9.004000000    -0.657000000     1.870000000
C     7.434000000    -2.062000000     1.459000000
H     7.560000000    -2.483000000     2.453000000
C     6.487000000    -2.517000000     0.573000000
C     6.356000000    -1.952000000    -0.666000000
H     5.466000000    -2.134000000    -1.263000000
C    -0.559000000    -2.136000000    -0.116000000
H    -0.653000000    -3.102000000     0.374000000
C    -0.323000000    -0.947000000     0.569000000
H    -0.474000000    -0.862000000     1.643000000
C     0.151000000     0.184000000     0.020000000
H     0.408000000     0.973000000     0.686000000
C     0.194000000     0.252000000    -1.390000000
H     0.550000000     1.176000000    -1.840000000
C     0.001000000    -0.959000000    -2.082000000
H     0.001000000    -1.042000000    -3.166000000
C    -0.365000000    -2.150000000    -1.492000000
C    -0.586000000    -3.420000000    -2.242000000
O    -0.454000000    -3.465000000    -3.471000000
O    -0.678000000    -4.522000000    -1.708000000
O     0.000000000    -6.042000000    -4.611000000
H    -0.142000000    -5.207000000    -4.164000000
H    -0.868000000    -6.295000000    -4.925000000
O    -0.545000000    -4.441000000    -7.688000000
H     0.292000000    -4.877000000    -7.528000000
H    -0.740000000    -4.626000000    -8.607000000
O    -5.387000000    -7.046000000    -2.293000000
H    -5.747000000    -7.521000000    -1.544000000
H    -4.679000000    -6.517000000    -1.924000000
O    -1.397000000    -7.897000000    -0.237000000
H    -0.440000000    -7.860000000    -0.241000000
H    -1.617000000    -8.492000000    -0.954000000
O     2.275000000    -4.421000000    -3.740000000
H     1.901000000    -4.826000000    -2.957000000
H     1.516000000    -4.181000000    -4.271000000
O     0.636000000    -8.634000000    -4.476000000
H     1.551000000    -8.805000000    -4.697000000
H     0.593000000    -7.687000000    -4.344000000
O    -4.861000000    -4.124000000    -6.585000000
H    -5.715000000    -3.964000000    -6.183000000
H    -4.351000000    -4.553000000    -5.898000000
O     1.985000000    -6.232000000    -7.304000000
H     2.643000000    -6.431000000    -7.970000000
H     2.473000000    -6.224000000    -6.480000000
O     3.417000000    -6.867000000    -5.060000000
H     3.159000000    -6.139000000    -4.493000000
H     3.459000000    -7.623000000    -4.475000000
O     2.000000000    -1.832000000    -8.306000000
H     2.785000000    -2.220000000    -8.693000000
H     2.190000000    -1.789000000    -7.369000000
O    -0.669000000    -1.337000000    -8.643000000
H     0.194000000    -1.729000000    -8.509000000
H    -1.030000000    -1.244000000    -7.762000000
O    -4.590000000    -7.967000000    -4.613000000
H    -5.168000000    -7.592000000    -3.949000000
H    -3.825000000    -7.390000000    -4.618000000
O     3.761000000    -8.211000000    -1.109000000
H     2.893000000    -8.614000000    -1.123000000
H     3.879000000    -7.926000000    -0.203000000
O     1.318000000    -6.159000000    -1.416000000
H     1.258000000    -6.194000000    -0.462000000
H     0.626000000    -5.552000000    -1.678000000
O    -2.937000000    -5.959000000    -1.562000000
H    -2.686000000    -6.657000000    -0.958000000
H    -2.163000000    -5.398000000    -1.614000000
O    -0.403000000    -2.194000000    -5.858000000
H    -0.642000000    -2.846000000    -6.517000000
H    -0.550000000    -2.635000000    -5.021000000
O    -3.118000000    -5.099000000    -4.346000000
H    -2.755000000    -4.246000000    -4.107000000
H    -3.094000000    -5.605000000    -3.535000000
O     1.226000000    -9.309000000    -0.959000000
H     1.107000000   -10.012000000    -1.599000000
H     1.206000000    -8.506000000    -1.479000000
O     4.101000000    -2.439000000    -4.396000000
H     3.649000000    -1.635000000    -4.139000000
H     3.503000000    -3.141000000    -4.141000000
