215
-1460.83781
C    -3.061000000    -3.546000000     0.946000000
H    -3.435000000    -2.617000000     0.524000000
C    -2.515000000    -3.430000000     2.226000000
C    -1.887000000    -4.503000000     2.866000000
H    -1.439000000    -4.486000000     3.856000000
C    -2.375000000    -2.052000000     2.863000000
O    -3.627000000    -1.405000000     3.032000000
H    -1.824000000    -1.334000000     2.239000000
O    -1.742000000    -2.165000000     4.135000000
C    -0.823000000    -1.195000000     4.454000000
C     0.558000000    -1.471000000     4.321000000
H     0.839000000    -2.512000000     4.177000000
C     1.515000000    -0.462000000     4.544000000
O     2.781000000    -0.842000000     4.175000000
C     1.152000000     0.857000000     4.698000000
C     2.111000000     2.010000000     4.724000000
H     1.716000000     2.859000000     5.287000000
C     2.462000000     2.537000000     3.376000000
C     1.780000000     3.666000000     2.850000000
H     1.236000000     4.237000000     3.598000000
H     2.985000000     1.633000000     5.260000000
C    -0.231000000     1.107000000     4.974000000
H    -0.611000000     2.110000000     5.149000000
C    -1.205000000     0.165000000     4.762000000
C    -2.647000000     0.548000000     4.903000000
H    -2.721000000     1.351000000     5.639000000
H    -3.235000000    -0.262000000     5.339000000
C    -3.216000000     0.903000000     3.519000000
C    -3.231000000     2.241000000     3.127000000
H    -2.948000000     3.015000000     3.836000000
C    -3.702000000    -0.082000000     2.645000000
C    -4.143000000     0.225000000     1.372000000
H    -4.503000000    -0.591000000     0.751000000
C    -4.112000000     1.556000000     0.982000000
O    -4.439000000     1.834000000    -0.313000000
C    -3.435000000     1.973000000    -1.294000000
C    -3.858000000     1.247000000    -2.573000000
C    -3.375000000     1.660000000    -3.830000000
H    -2.656000000     2.476000000    -3.818000000
C    -4.557000000     0.106000000    -2.522000000
H    -4.885000000    -0.328000000    -1.581000000
O    -3.279000000     3.350000000    -1.573000000
H    -2.518000000     1.489000000    -0.928000000
C    -3.725000000     2.578000000     1.874000000
C    -3.615000000     4.009000000     1.315000000
H    -3.631000000     4.836000000     2.028000000
H    -4.470000000     4.222000000     0.669000000
C    -2.271000000     4.233000000     0.439000000
C    -1.084000000     4.736000000     1.027000000
H    -1.059000000     5.002000000     2.081000000
C    -2.274000000     3.996000000    -0.887000000
C    -1.131000000     4.236000000    -1.596000000
H    -1.084000000     4.147000000    -2.679000000
C     0.110000000     4.531000000    -0.969000000
O     1.246000000     4.441000000    -1.708000000
C     2.049000000     3.261000000    -1.455000000
C     2.435000000     2.570000000    -2.780000000
C     1.645000000     2.613000000    -3.913000000
H     0.667000000     3.072000000    -3.796000000
C     3.542000000     1.722000000    -2.768000000
H     4.118000000     1.575000000    -1.858000000
O     3.176000000     3.567000000    -0.563000000
H     1.399000000     2.497000000    -1.003000000
C     0.162000000     4.829000000     0.349000000
C     1.408000000     5.313000000     1.042000000
H     1.179000000     5.951000000     1.898000000
H     2.135000000     5.789000000     0.381000000
C     2.087000000     4.091000000     1.567000000
C     2.994000000     3.373000000     0.751000000
C     3.686000000     2.385000000     1.371000000
H     4.415000000     1.917000000     0.713000000
C     3.471000000     1.901000000     2.662000000
O     4.014000000     0.727000000     3.116000000
C     3.255000000    -0.469000000     2.890000000
H     2.469000000    -0.161000000     2.184000000
C     4.100000000    -1.599000000     2.273000000
C     3.571000000    -2.830000000     2.261000000
H     2.757000000    -3.049000000     2.946000000
C     5.209000000    -1.357000000     1.356000000
H     5.688000000    -0.386000000     1.262000000
C     5.671000000    -2.326000000     0.534000000
O     6.727000000    -2.179000000    -0.311000000
C     4.971000000    -3.531000000     0.476000000
H     5.367000000    -4.375000000    -0.084000000
C     3.899000000    -3.790000000     1.351000000
O     3.231000000    -5.016000000     1.351000000
C     2.424000000    -5.480000000     2.396000000
C     1.110000000    -5.719000000     2.116000000
H     0.652000000    -5.482000000     1.159000000
C     2.938000000    -5.802000000     3.639000000
H     3.975000000    -5.556000000     3.854000000
C     2.128000000    -6.403000000     4.607000000
H     2.453000000    -6.495000000     5.640000000
C     0.786000000    -6.716000000     4.294000000
H     0.122000000    -7.123000000     5.052000000
C     0.337000000    -6.323000000     3.085000000
O    -0.963000000    -6.674000000     2.644000000
C    -1.779000000    -5.688000000     2.102000000
C    -2.200000000    -5.817000000     0.770000000
H    -1.982000000    -6.735000000     0.231000000
C    -2.884000000    -4.716000000     0.182000000
O    -3.376000000    -4.758000000    -1.076000000
C    -4.574000000    -4.204000000    -1.505000000
C    -4.561000000    -3.044000000    -2.330000000
H    -3.587000000    -2.618000000    -2.556000000
C    -5.754000000    -4.680000000    -0.907000000
H    -5.673000000    -5.542000000    -0.249000000
C    -6.932000000    -4.062000000    -1.297000000
H    -7.870000000    -4.469000000    -0.927000000
C    -6.917000000    -3.140000000    -2.340000000
H    -7.865000000    -2.741000000    -2.691000000
C    -5.749000000    -2.572000000    -2.759000000
O    -5.789000000    -1.627000000    -3.760000000
C    -4.973000000    -0.503000000    -3.738000000
C    -4.606000000     0.014000000    -4.981000000
H    -5.041000000    -0.474000000    -5.848000000
C    -3.835000000     1.142000000    -5.004000000
O    -3.479000000     1.615000000    -6.233000000
C    -2.398000000     2.437000000    -6.351000000
C    -1.142000000     1.760000000    -6.387000000
H    -1.126000000     0.673000000    -6.369000000
C    -2.432000000     3.847000000    -6.340000000
H    -3.361000000     4.403000000    -6.434000000
C    -1.192000000     4.588000000    -6.323000000
H    -1.231000000     5.674000000    -6.300000000
C     0.001000000     3.922000000    -6.317000000
H     0.932000000     4.484000000    -6.316000000
C     0.017000000     2.513000000    -6.299000000
O     1.206000000     1.876000000    -6.203000000
C     2.012000000     1.994000000    -5.094000000
C     3.151000000     1.235000000    -5.094000000
H     3.371000000     0.620000000    -5.963000000
C     3.951000000     1.126000000    -3.925000000
O     5.039000000     0.264000000    -3.953000000
C     5.960000000     0.201000000    -2.865000000
C     6.974000000     1.161000000    -2.687000000
H     7.083000000     2.028000000    -3.332000000
C     7.965000000     0.997000000    -1.646000000
H     8.785000000     1.710000000    -1.605000000
C     7.964000000    -0.196000000    -0.899000000
H     8.717000000    -0.367000000    -0.133000000
C     6.862000000    -1.082000000    -1.073000000
C     5.845000000    -0.851000000    -1.989000000
H     5.064000000    -1.593000000    -2.136000000
C     0.326000000    -2.101000000    -0.277000000
H     0.667000000    -2.997000000     0.235000000
C     0.212000000    -0.832000000     0.334000000
H     0.280000000    -0.721000000     1.413000000
C     0.065000000     0.336000000    -0.410000000
H     0.002000000     1.290000000     0.100000000
C    -0.121000000     0.290000000    -1.772000000
H    -0.138000000     1.208000000    -2.354000000
C    -0.126000000    -0.959000000    -2.366000000
H    -0.249000000    -0.890000000    -3.444000000
C     0.132000000    -2.189000000    -1.699000000
C     0.068000000    -3.594000000    -2.296000000
O    -0.061000000    -3.640000000    -3.474000000
O     0.347000000    -4.600000000    -1.708000000
O     4.932000000    -4.112000000    -2.723000000
H     4.584000000    -4.659000000    -2.018000000
H     4.200000000    -3.547000000    -2.971000000
O    -0.681000000    -9.224000000    -6.219000000
H    -0.994000000    -8.477000000    -5.709000000
H    -0.610000000    -8.890000000    -7.113000000
O     3.128000000    -4.075000000    -6.453000000
H     3.656000000    -4.369000000    -7.194000000
H     2.687000000    -4.866000000    -6.143000000
O    -5.553000000    -5.038000000    -4.883000000
H    -5.686000000    -5.577000000    -4.104000000
H    -4.625000000    -5.144000000    -5.092000000
O     1.309000000    -6.541000000    -7.518000000
H     0.562000000    -7.115000000    -7.686000000
H     2.019000000    -7.136000000    -7.276000000
O    -3.569000000    -2.469000000    -6.808000000
H    -4.467000000    -2.473000000    -7.140000000
H    -3.187000000    -1.665000000    -7.158000000
O     2.926000000    -5.931000000    -1.327000000
H     2.672000000    -6.831000000    -1.122000000
H     2.104000000    -5.440000000    -1.306000000
O     5.004000000    -2.113000000    -5.683000000
H     4.710000000    -1.615000000    -4.920000000
H     4.311000000    -2.755000000    -5.832000000
O     2.594000000    -2.331000000    -3.403000000
H     1.854000000    -2.894000000    -3.173000000
H     2.191000000    -1.540000000    -3.760000000
O    -1.571000000    -7.001000000    -4.978000000
H    -1.967000000    -6.178000000    -5.264000000
H    -1.658000000    -6.991000000    -4.025000000
O     0.639000000    -2.337000000    -5.894000000
H     0.325000000    -2.666000000    -5.052000000
H     1.486000000    -2.766000000    -6.017000000
O     0.030000000    -1.979000000    -8.500000000
H     0.044000000    -1.891000000    -7.546000000
H     0.150000000    -2.916000000    -8.656000000
O     0.374000000   -10.076000000    -2.214000000
H    -0.328000000    -9.432000000    -2.310000000
H     0.642000000   -10.274000000    -3.111000000
O     1.849000000    -8.430000000    -0.507000000
H     1.286000000    -9.111000000    -0.874000000
H     1.722000000    -8.499000000     0.439000000
O     3.472000000    -6.832000000    -3.873000000
H     2.591000000    -6.583000000    -4.154000000
H     3.536000000    -6.512000000    -2.973000000
O    -1.651000000    -6.405000000    -2.405000000
H    -0.790000000    -6.004000000    -2.287000000
H    -2.262000000    -5.777000000    -2.019000000
O    -2.668000000    -4.517000000    -5.194000000
H    -3.065000000    -3.796000000    -5.684000000
H    -1.969000000    -4.104000000    -4.686000000
O     2.959000000    -1.041000000    -0.789000000
H     2.075000000    -0.759000000    -0.552000000
H     2.853000000    -1.475000000    -1.636000000
O     0.966000000    -5.767000000    -4.662000000
H     0.131000000    -6.184000000    -4.878000000
H     0.727000000    -5.026000000    -4.106000000
