215
-1450.00401
C    -2.511000000    -3.101000000     3.440000000
H    -3.249000000    -2.313000000     3.568000000
C    -1.148000000    -2.793000000     3.442000000
C    -0.292000000    -3.844000000     3.191000000
H     0.775000000    -3.651000000     3.260000000
C    -0.523000000    -1.435000000     3.716000000
O    -1.357000000    -0.683000000     4.646000000
H    -0.581000000    -0.945000000     2.733000000
O     0.776000000    -1.504000000     4.387000000
C     1.774000000    -0.635000000     4.016000000
C     2.766000000    -1.026000000     3.150000000
H     2.941000000    -2.079000000     2.946000000
C     3.675000000    -0.137000000     2.679000000
O     4.603000000    -0.704000000     1.859000000
C     3.647000000     1.231000000     2.973000000
C     4.589000000     2.224000000     2.363000000
H     4.697000000     3.092000000     3.016000000
C     4.060000000     2.614000000     0.994000000
C     3.258000000     3.754000000     0.861000000
H     2.973000000     4.395000000     1.691000000
H     5.606000000     1.848000000     2.229000000
C     2.636000000     1.677000000     3.850000000
H     2.601000000     2.700000000     4.217000000
C     1.709000000     0.757000000     4.367000000
C     0.580000000     1.248000000     5.328000000
H     0.951000000     2.173000000     5.774000000
H     0.517000000     0.460000000     6.082000000
C    -0.707000000     1.634000000     4.589000000
C    -0.834000000     2.842000000     3.947000000
H    -0.126000000     3.636000000     4.169000000
C    -1.690000000     0.626000000     4.382000000
C    -2.966000000     0.949000000     3.867000000
H    -3.738000000     0.192000000     3.748000000
C    -2.996000000     2.137000000     3.123000000
O    -4.065000000     2.309000000     2.309000000
C    -3.727000000     2.234000000     0.853000000
C    -4.794000000     1.423000000     0.150000000
C    -4.851000000     1.476000000    -1.252000000
H    -4.268000000     2.235000000    -1.768000000
C    -5.610000000     0.533000000     0.848000000
H    -5.682000000     0.666000000     1.924000000
O    -3.633000000     3.561000000     0.282000000
H    -2.748000000     1.736000000     0.790000000
C    -1.986000000     3.141000000     3.189000000
C    -2.137000000     4.506000000     2.585000000
H    -1.596000000     5.200000000     3.232000000
H    -3.185000000     4.806000000     2.651000000
C    -1.549000000     4.487000000     1.168000000
C    -0.270000000     4.871000000     0.904000000
H     0.354000000     5.310000000     1.678000000
C    -2.360000000     4.098000000     0.163000000
C    -1.841000000     3.920000000    -1.090000000
H    -2.479000000     3.516000000    -1.872000000
C    -0.500000000     4.191000000    -1.388000000
O     0.086000000     3.917000000    -2.624000000
C     0.943000000     2.756000000    -2.691000000
C     0.691000000     1.809000000    -3.848000000
C    -0.598000000     1.566000000    -4.337000000
H    -1.507000000     1.907000000    -3.847000000
C     1.771000000     1.215000000    -4.505000000
H     2.823000000     1.346000000    -4.266000000
O     2.281000000     3.197000000    -2.599000000
H     0.575000000     2.118000000    -1.874000000
C     0.255000000     4.753000000    -0.392000000
C     1.719000000     5.250000000    -0.640000000
H     1.950000000     6.191000000    -0.137000000
H     1.816000000     5.564000000    -1.682000000
C     2.633000000     4.035000000    -0.371000000
C     2.856000000     3.136000000    -1.433000000
C     3.740000000     2.025000000    -1.310000000
H     3.936000000     1.352000000    -2.141000000
C     4.442000000     1.832000000    -0.105000000
O     5.286000000     0.712000000    -0.045000000
C     4.489000000    -0.376000000     0.420000000
H     3.446000000    -0.129000000     0.171000000
C     4.776000000    -1.633000000    -0.446000000
C     4.275000000    -2.839000000     0.038000000
H     3.878000000    -2.876000000     1.049000000
C     5.178000000    -1.555000000    -1.853000000
H     5.519000000    -0.627000000    -2.304000000
C     5.101000000    -2.734000000    -2.650000000
O     5.451000000    -2.759000000    -3.959000000
C     4.778000000    -3.931000000    -2.074000000
H     4.760000000    -4.818000000    -2.702000000
C     4.336000000    -3.986000000    -0.791000000
O     3.936000000    -5.259000000    -0.285000000
C     3.476000000    -5.443000000     1.031000000
C     2.101000000    -5.745000000     1.205000000
H     1.494000000    -5.841000000     0.309000000
C     4.289000000    -5.247000000     2.168000000
H     5.288000000    -4.826000000     2.089000000
C     3.738000000    -5.410000000     3.450000000
H     4.400000000    -5.325000000     4.307000000
C     2.361000000    -5.692000000     3.573000000
H     1.892000000    -5.744000000     4.553000000
C     1.578000000    -5.942000000     2.486000000
O     0.188000000    -6.137000000     2.529000000
C    -0.724000000    -5.121000000     2.733000000
C    -2.051000000    -5.365000000     2.623000000
H    -2.372000000    -6.351000000     2.298000000
C    -2.958000000    -4.349000000     3.046000000
O    -4.287000000    -4.551000000     2.890000000
C    -5.279000000    -3.612000000     3.032000000
C    -5.525000000    -2.735000000     1.953000000
H    -4.830000000    -2.772000000     1.118000000
C    -6.185000000    -3.832000000     4.097000000
H    -5.847000000    -4.485000000     4.897000000
C    -7.351000000    -3.026000000     4.083000000
H    -8.103000000    -3.096000000     4.865000000
C    -7.608000000    -2.180000000     3.013000000
H    -8.534000000    -1.618000000     2.925000000
C    -6.719000000    -1.963000000     2.002000000
O    -7.186000000    -1.198000000     0.966000000
C    -6.378000000    -0.394000000     0.201000000
C    -6.329000000    -0.442000000    -1.191000000
H    -6.924000000    -1.151000000    -1.761000000
C    -5.673000000     0.516000000    -1.892000000
O    -5.627000000     0.349000000    -3.223000000
C    -4.851000000     1.167000000    -4.069000000
C    -3.843000000     0.571000000    -4.707000000
H    -3.640000000    -0.482000000    -4.530000000
C    -5.100000000     2.580000000    -4.295000000
H    -5.817000000     3.190000000    -3.753000000
C    -4.342000000     3.293000000    -5.190000000
H    -4.501000000     4.359000000    -5.331000000
C    -3.259000000     2.697000000    -5.810000000
H    -2.587000000     3.299000000    -6.416000000
C    -3.116000000     1.282000000    -5.611000000
O    -2.003000000     0.660000000    -6.071000000
C    -0.722000000     0.899000000    -5.584000000
C     0.363000000     0.333000000    -6.278000000
H     0.169000000    -0.188000000    -7.212000000
C     1.617000000     0.547000000    -5.767000000
O     2.703000000     0.079000000    -6.531000000
C     3.865000000    -0.297000000    -6.064000000
C     4.956000000     0.292000000    -6.680000000
H     4.826000000     1.034000000    -7.464000000
C     6.262000000    -0.143000000    -6.411000000
H     7.076000000     0.172000000    -7.058000000
C     6.470000000    -1.143000000    -5.433000000
H     7.470000000    -1.545000000    -5.291000000
C     5.330000000    -1.679000000    -4.755000000
C     4.071000000    -1.275000000    -5.070000000
H     3.178000000    -1.762000000    -4.687000000
C    -0.159000000    -2.559000000    -0.314000000
H     0.299000000    -3.445000000     0.120000000
C     0.547000000    -1.399000000    -0.003000000
H     1.527000000    -1.383000000     0.466000000
C    -0.041000000    -0.167000000    -0.226000000
H     0.587000000     0.641000000    -0.043000000
C    -1.316000000    -0.003000000    -0.755000000
H    -1.742000000     0.979000000    -0.947000000
C    -1.947000000    -1.149000000    -1.143000000
H    -2.946000000    -0.868000000    -1.467000000
C    -1.464000000    -2.420000000    -0.929000000
C    -2.305000000    -3.617000000    -1.322000000
O    -3.279000000    -3.562000000    -2.105000000
O    -1.952000000    -4.691000000    -0.943000000
O    -2.465000000    -6.885000000    -7.021000000
H    -1.667000000    -7.333000000    -7.302000000
H    -2.170000000    -6.014000000    -6.754000000
O    -7.676000000    -5.695000000    -4.142000000
H    -7.017000000    -6.109000000    -3.585000000
H    -8.289000000    -6.399000000    -4.352000000
O    -7.657000000    -4.988000000     1.202000000
H    -8.466000000    -4.797000000     1.677000000
H    -7.309000000    -4.128000000     0.966000000
O    -8.348000000    -3.436000000    -1.970000000
H    -7.471000000    -3.495000000    -1.590000000
H    -8.396000000    -4.176000000    -2.575000000
O    -5.923000000    -7.006000000     2.156000000
H    -5.629000000    -6.593000000     2.968000000
H    -6.575000000    -6.402000000     1.802000000
O    -2.039000000    -4.369000000    -6.027000000
H    -1.321000000    -4.338000000    -6.660000000
H    -2.236000000    -3.450000000    -5.844000000
O    -3.282000000    -5.706000000    -3.734000000
H    -2.714000000    -5.195000000    -4.310000000
H    -3.279000000    -5.226000000    -2.906000000
O     0.367000000    -6.986000000    -4.937000000
H    -0.103000000    -7.549000000    -4.322000000
H     0.750000000    -6.300000000    -4.388000000
O     0.836000000    -1.844000000    -3.315000000
H     0.666000000    -1.458000000    -2.456000000
H     0.374000000    -1.274000000    -3.930000000
O    -6.378000000    -7.081000000    -2.116000000
H    -6.802000000    -7.882000000    -1.806000000
H    -5.585000000    -7.010000000    -1.586000000
O    -5.023000000    -2.019000000    -7.080000000
H    -4.473000000    -2.406000000    -6.399000000
H    -4.472000000    -1.345000000    -7.478000000
O     1.910000000    -7.875000000    -1.492000000
H     1.193000000    -7.242000000    -1.544000000
H     2.347000000    -7.811000000    -2.341000000
O    -2.333000000    -8.600000000     0.121000000
H    -2.358000000    -7.846000000    -0.469000000
H    -3.250000000    -8.852000000     0.226000000
O    -2.551000000    -8.166000000    -2.840000000
H    -2.584000000    -8.967000000    -3.363000000
H    -2.972000000    -7.504000000    -3.388000000
O    -0.471000000    -6.604000000    -2.060000000
H    -1.102000000    -7.243000000    -2.391000000
H    -1.010000000    -5.912000000    -1.676000000
O    -5.836000000    -4.011000000    -0.941000000
H    -5.719000000    -4.935000000    -0.717000000
H    -4.956000000    -3.705000000    -1.158000000
O    -4.020000000    -5.912000000    -0.055000000
H    -3.323000000    -5.363000000    -0.413000000
H    -4.121000000    -5.614000000     0.849000000
O     1.330000000    -4.732000000    -3.298000000
H     1.285000000    -3.777000000    -3.250000000
H     0.564000000    -5.033000000    -2.809000000
O    -4.566000000    -2.760000000    -4.380000000
H    -4.453000000    -3.709000000    -4.433000000
H    -4.132000000    -2.513000000    -3.563000000
