215
-1432.90572
C    -3.164000000    -3.317000000     2.864000000
H    -3.854000000    -2.479000000     2.931000000
C    -1.833000000    -3.212000000     3.261000000
C    -1.012000000    -4.347000000     2.990000000
H     0.065000000    -4.276000000     3.118000000
C    -1.136000000    -1.858000000     3.692000000
O    -2.012000000    -1.117000000     4.441000000
H    -0.859000000    -1.241000000     2.825000000
O     0.110000000    -2.157000000     4.491000000
C     1.171000000    -1.346000000     4.297000000
C     2.218000000    -1.912000000     3.512000000
H     2.011000000    -2.921000000     3.164000000
C     3.270000000    -1.118000000     3.242000000
O     4.088000000    -1.674000000     2.270000000
C     3.380000000     0.236000000     3.629000000
C     4.530000000     1.093000000     3.089000000
H     4.734000000     1.793000000     3.902000000
C     4.268000000     1.802000000     1.756000000
C     3.487000000     2.921000000     1.640000000
H     3.240000000     3.395000000     2.586000000
H     5.458000000     0.519000000     3.131000000
C     2.389000000     0.829000000     4.406000000
H     2.511000000     1.869000000     4.697000000
C     1.261000000     0.013000000     4.646000000
C     0.117000000     0.548000000     5.519000000
H     0.512000000     1.279000000     6.227000000
H    -0.124000000    -0.248000000     6.227000000
C    -1.041000000     1.057000000     4.614000000
C    -0.983000000     2.378000000     4.186000000
H    -0.157000000     2.997000000     4.527000000
C    -2.074000000     0.256000000     4.183000000
C    -3.023000000     0.714000000     3.297000000
H    -3.844000000     0.069000000     2.992000000
C    -3.013000000     2.011000000     2.828000000
O    -3.903000000     2.340000000     1.857000000
C    -3.518000000     2.457000000     0.476000000
C    -4.542000000     1.891000000    -0.546000000
C    -4.348000000     2.166000000    -1.910000000
H    -3.780000000     3.020000000    -2.269000000
C    -5.293000000     0.751000000    -0.139000000
H    -5.404000000     0.420000000     0.890000000
O    -3.107000000     3.843000000     0.208000000
H    -2.621000000     1.824000000     0.546000000
C    -1.984000000     2.830000000     3.296000000
C    -1.868000000     4.222000000     2.804000000
H    -1.540000000     4.834000000     3.647000000
H    -2.865000000     4.645000000     2.663000000
C    -1.162000000     4.336000000     1.490000000
C     0.184000000     4.674000000     1.470000000
H     0.682000000     4.729000000     2.435000000
C    -1.791000000     4.130000000     0.260000000
C    -1.063000000     4.170000000    -0.929000000
H    -1.578000000     3.972000000    -1.865000000
C     0.296000000     4.395000000    -0.901000000
O     1.007000000     4.287000000    -2.007000000
C     1.658000000     3.028000000    -2.251000000
C     1.473000000     2.550000000    -3.709000000
C     0.265000000     2.826000000    -4.380000000
H    -0.509000000     3.477000000    -3.983000000
C     2.465000000     1.732000000    -4.212000000
H     3.340000000     1.385000000    -3.667000000
O     3.113000000     3.333000000    -2.009000000
H     1.276000000     2.293000000    -1.526000000
C     0.942000000     4.644000000     0.319000000
C     2.470000000     4.814000000     0.393000000
H     2.659000000     5.374000000     1.311000000
H     2.848000000     5.481000000    -0.384000000
C     3.156000000     3.492000000     0.424000000
C     3.640000000     2.978000000    -0.788000000
C     4.293000000     1.768000000    -0.689000000
H     4.493000000     1.156000000    -1.565000000
C     4.600000000     1.175000000     0.542000000
O     5.013000000    -0.145000000     0.617000000
C     3.931000000    -1.079000000     0.898000000
H     2.935000000    -0.617000000     0.828000000
C     3.933000000    -2.183000000    -0.179000000
C     3.396000000    -3.449000000     0.062000000
H     2.979000000    -3.633000000     1.049000000
C     4.555000000    -2.082000000    -1.415000000
H     4.996000000    -1.133000000    -1.711000000
C     4.591000000    -3.051000000    -2.388000000
O     5.224000000    -2.824000000    -3.635000000
C     4.021000000    -4.232000000    -2.106000000
H     4.019000000    -5.056000000    -2.816000000
C     3.373000000    -4.499000000    -0.873000000
O     2.734000000    -5.748000000    -0.565000000
C     2.277000000    -6.058000000     0.671000000
C     0.900000000    -6.167000000     0.899000000
H     0.303000000    -6.027000000     0.001000000
C     3.172000000    -6.352000000     1.712000000
H     4.247000000    -6.392000000     1.559000000
C     2.773000000    -6.673000000     3.008000000
H     3.474000000    -6.778000000     3.832000000
C     1.377000000    -6.751000000     3.195000000
H     0.996000000    -7.083000000     4.157000000
C     0.440000000    -6.586000000     2.166000000
O    -0.945000000    -6.729000000     2.388000000
C    -1.639000000    -5.552000000     2.601000000
C    -3.036000000    -5.627000000     2.365000000
H    -3.488000000    -6.556000000     2.028000000
C    -3.801000000    -4.517000000     2.493000000
O    -5.206000000    -4.583000000     2.126000000
C    -5.954000000    -3.428000000     1.888000000
C    -6.016000000    -2.854000000     0.633000000
H    -5.347000000    -3.129000000    -0.179000000
C    -6.736000000    -2.995000000     2.978000000
H    -6.600000000    -3.434000000     3.964000000
C    -7.534000000    -1.886000000     2.778000000
H    -8.120000000    -1.438000000     3.577000000
C    -7.576000000    -1.278000000     1.467000000
H    -8.055000000    -0.305000000     1.381000000
C    -6.844000000    -1.787000000     0.417000000
O    -6.814000000    -1.157000000    -0.772000000
C    -6.025000000    -0.028000000    -1.108000000
C    -5.812000000     0.279000000    -2.459000000
H    -6.338000000    -0.257000000    -3.245000000
C    -4.979000000     1.373000000    -2.836000000
O    -4.819000000     1.504000000    -4.198000000
C    -4.089000000     2.523000000    -4.847000000
C    -2.818000000     2.269000000    -5.397000000
H    -2.410000000     1.266000000    -5.300000000
C    -4.582000000     3.781000000    -4.982000000
H    -5.471000000     4.079000000    -4.432000000
C    -3.780000000     4.744000000    -5.650000000
H    -4.221000000     5.733000000    -5.752000000
C    -2.537000000     4.482000000    -6.216000000
H    -1.941000000     5.187000000    -6.790000000
C    -2.065000000     3.192000000    -6.057000000
O    -0.774000000     2.915000000    -6.510000000
C     0.262000000     2.416000000    -5.713000000
C     1.243000000     1.555000000    -6.232000000
H     1.315000000     1.266000000    -7.278000000
C     2.322000000     1.214000000    -5.477000000
O     3.421000000     0.558000000    -6.044000000
C     4.536000000     0.117000000    -5.424000000
C     5.530000000     0.937000000    -4.996000000
H     5.568000000     1.912000000    -5.475000000
C     6.628000000     0.487000000    -4.228000000
H     7.451000000     1.134000000    -3.937000000
C     6.654000000    -0.873000000    -3.830000000
H     7.369000000    -1.199000000    -3.080000000
C     5.480000000    -1.615000000    -4.099000000
C     4.501000000    -1.156000000    -4.899000000
H     3.707000000    -1.885000000    -5.038000000
C    -0.717000000    -2.269000000    -0.099000000
H    -0.476000000    -3.281000000     0.215000000
C     0.160000000    -1.263000000     0.172000000
H     1.024000000    -1.444000000     0.806000000
C    -0.055000000     0.018000000    -0.264000000
H     0.671000000     0.744000000    -0.101000000
C    -1.147000000     0.329000000    -1.070000000
H    -1.315000000     1.345000000    -1.418000000
C    -2.101000000    -0.644000000    -1.231000000
H    -2.965000000    -0.445000000    -1.860000000
C    -1.903000000    -1.968000000    -0.810000000
C    -2.936000000    -3.028000000    -1.028000000
O    -3.784000000    -2.775000000    -1.875000000
O    -2.637000000    -4.235000000    -0.785000000
O    -2.764000000    -6.265000000    -5.418000000
H    -3.527000000    -6.029000000    -5.945000000
H    -2.736000000    -5.604000000    -4.727000000
O    -7.973000000    -4.839000000     0.008000000
H    -8.003000000    -5.600000000     0.587000000
H    -7.161000000    -4.947000000    -0.487000000
O    -9.096000000    -3.361000000    -2.011000000
H    -8.668000000    -2.975000000    -2.775000000
H    -8.385000000    -3.514000000    -1.389000000
O     2.004000000    -3.938000000    -4.674000000
H     1.406000000    -4.084000000    -3.942000000
H     1.484000000    -3.452000000    -5.314000000
O    -6.478000000    -5.180000000    -5.231000000
H    -6.092000000    -5.128000000    -4.356000000
H    -7.192000000    -5.811000000    -5.141000000
O     0.489000000    -3.075000000    -6.596000000
H     0.646000000    -2.348000000    -7.198000000
H    -0.462000000    -3.184000000    -6.595000000
O    -2.800000000    -3.035000000    -6.735000000
H    -3.503000000    -3.666000000    -6.891000000
H    -3.031000000    -2.619000000    -5.905000000
O    -1.928000000    -4.126000000    -3.823000000
H    -2.051000000    -3.221000000    -4.111000000
H    -2.466000000    -4.201000000    -3.035000000
O     0.411000000    -7.230000000    -4.367000000
H    -0.528000000    -7.087000000    -4.245000000
H     0.818000000    -6.420000000    -4.058000000
O     0.288000000    -1.951000000    -2.965000000
H    -0.574000000    -2.236000000    -2.660000000
H     0.494000000    -1.190000000    -2.423000000
O    -7.643000000    -2.526000000    -4.188000000
H    -7.226000000    -3.245000000    -4.663000000
H    -7.527000000    -1.765000000    -4.757000000
O    -2.985000000    -8.980000000     0.040000000
H    -2.504000000    -9.052000000    -0.784000000
H    -3.782000000    -8.502000000    -0.189000000
O    -2.753000000    -9.060000000    -3.538000000
H    -2.636000000    -8.120000000    -3.399000000
H    -3.694000000    -9.166000000    -3.682000000
O    -1.751000000    -6.743000000    -2.177000000
H    -1.891000000    -5.988000000    -1.606000000
H    -0.801000000    -6.794000000    -2.280000000
O    -5.491000000    -8.301000000    -1.139000000
H    -5.912000000    -8.827000000    -0.459000000
H    -5.279000000    -7.474000000    -0.705000000
O    -5.306000000    -4.769000000    -2.772000000
H    -5.112000000    -5.483000000    -2.165000000
H    -4.749000000    -4.048000000    -2.480000000
O    -4.568000000    -6.021000000    -0.153000000
H    -3.868000000    -5.439000000    -0.449000000
H    -4.684000000    -5.804000000     0.772000000
O     0.405000000    -4.976000000    -2.691000000
H    -0.381000000    -4.564000000    -3.050000000
H     0.825000000    -4.285000000    -2.178000000
O    -3.812000000    -1.780000000    -4.488000000
H    -4.320000000    -0.972000000    -4.414000000
H    -3.725000000    -2.092000000    -3.587000000
