215
-1457.90529
C    -2.199000000    -2.961000000     3.254000000
H    -2.779000000    -2.043000000     3.301000000
C    -0.849000000    -2.883000000     3.508000000
C    -0.021000000    -4.005000000     3.372000000
H     1.040000000    -3.797000000     3.485000000
C    -0.258000000    -1.526000000     3.996000000
O    -1.162000000    -0.683000000     4.770000000
H    -0.058000000    -1.020000000     3.040000000
O     0.983000000    -1.660000000     4.685000000
C     2.050000000    -0.930000000     4.199000000
C     2.871000000    -1.494000000     3.174000000
H     2.765000000    -2.561000000     2.999000000
C     3.743000000    -0.653000000     2.468000000
O     4.528000000    -1.226000000     1.473000000
C     3.797000000     0.683000000     2.772000000
C     4.733000000     1.631000000     1.999000000
H     5.118000000     2.573000000     2.395000000
C     4.164000000     1.969000000     0.688000000
C     3.512000000     3.181000000     0.599000000
H     3.209000000     3.618000000     1.547000000
H     5.627000000     1.062000000     1.736000000
C     2.974000000     1.199000000     3.665000000
H     3.016000000     2.281000000     3.763000000
C     2.073000000     0.439000000     4.445000000
C     1.039000000     1.123000000     5.409000000
H     1.473000000     2.031000000     5.834000000
H     0.839000000     0.428000000     6.227000000
C    -0.176000000     1.483000000     4.611000000
C    -0.162000000     2.833000000     4.055000000
H     0.750000000     3.423000000     4.103000000
C    -1.207000000     0.550000000     4.354000000
C    -2.282000000     1.062000000     3.604000000
H    -3.102000000     0.406000000     3.323000000
C    -2.324000000     2.404000000     3.187000000
O    -3.421000000     2.733000000     2.471000000
C    -3.385000000     2.649000000     1.027000000
C    -4.609000000     1.984000000     0.402000000
C    -4.880000000     2.170000000    -0.963000000
H    -4.381000000     2.970000000    -1.503000000
C    -5.343000000     1.052000000     1.109000000
H    -5.028000000     0.798000000     2.118000000
O    -3.129000000     3.936000000     0.467000000
H    -2.567000000     1.966000000     0.756000000
C    -1.264000000     3.278000000     3.317000000
C    -1.314000000     4.652000000     2.710000000
H    -0.507000000     5.147000000     3.255000000
H    -2.199000000     5.261000000     2.903000000
C    -0.936000000     4.731000000     1.239000000
C     0.380000000     5.040000000     0.952000000
H     1.066000000     5.231000000     1.773000000
C    -1.882000000     4.458000000     0.275000000
C    -1.434000000     4.359000000    -1.050000000
H    -2.119000000     4.114000000    -1.857000000
C    -0.089000000     4.541000000    -1.344000000
O     0.264000000     4.097000000    -2.555000000
C     1.018000000     2.796000000    -2.747000000
C     0.537000000     2.129000000    -3.998000000
C    -0.737000000     2.334000000    -4.377000000
H    -1.450000000     2.953000000    -3.839000000
C     1.323000000     1.144000000    -4.668000000
H     2.264000000     0.803000000    -4.245000000
O     2.396000000     3.170000000    -2.862000000
H     0.825000000     2.175000000    -1.860000000
C     0.850000000     4.884000000    -0.355000000
C     2.319000000     5.005000000    -0.603000000
H     2.708000000     5.714000000     0.131000000
H     2.485000000     5.426000000    -1.597000000
C     2.965000000     3.650000000    -0.598000000
C     3.141000000     2.858000000    -1.760000000
C     3.883000000     1.646000000    -1.703000000
H     3.931000000     1.108000000    -2.646000000
C     4.425000000     1.240000000    -0.476000000
O     4.947000000     0.022000000    -0.438000000
C     4.037000000    -0.927000000     0.158000000
H     2.999000000    -0.575000000     0.241000000
C     4.090000000    -2.184000000    -0.639000000
C     3.894000000    -3.456000000    -0.035000000
H     3.586000000    -3.493000000     1.007000000
C     4.190000000    -2.104000000    -2.026000000
H     4.401000000    -1.203000000    -2.596000000
C     4.193000000    -3.304000000    -2.748000000
O     4.334000000    -3.342000000    -4.154000000
C     4.226000000    -4.519000000    -2.134000000
H     4.398000000    -5.400000000    -2.747000000
C     4.019000000    -4.637000000    -0.746000000
O     3.992000000    -5.910000000    -0.215000000
C     3.351000000    -6.100000000     1.024000000
C     1.956000000    -5.949000000     1.284000000
H     1.324000000    -5.562000000     0.488000000
C     4.270000000    -6.540000000     1.995000000
H     5.311000000    -6.808000000     1.837000000
C     3.723000000    -6.961000000     3.241000000
H     4.335000000    -7.301000000     4.073000000
C     2.322000000    -6.951000000     3.485000000
H     1.918000000    -7.344000000     4.415000000
C     1.438000000    -6.421000000     2.524000000
O     0.161000000    -6.407000000     2.807000000
C    -0.554000000    -5.261000000     2.921000000
C    -1.857000000    -5.265000000     2.587000000
H    -2.403000000    -6.170000000     2.334000000
C    -2.694000000    -4.133000000     2.687000000
O    -4.046000000    -4.324000000     2.472000000
C    -4.965000000    -3.341000000     2.828000000
C    -5.381000000    -2.360000000     1.874000000
H    -4.869000000    -2.290000000     0.917000000
C    -5.609000000    -3.497000000     4.081000000
H    -5.152000000    -4.183000000     4.790000000
C    -6.696000000    -2.640000000     4.316000000
H    -7.216000000    -2.620000000     5.271000000
C    -7.146000000    -1.716000000     3.344000000
H    -7.960000000    -1.029000000     3.558000000
C    -6.485000000    -1.597000000     2.109000000
O    -6.958000000    -0.758000000     1.104000000
C    -6.304000000     0.270000000     0.429000000
C    -6.549000000     0.468000000    -0.929000000
H    -7.293000000    -0.139000000    -1.440000000
C    -5.790000000     1.345000000    -1.678000000
O    -5.993000000     1.426000000    -3.088000000
C    -5.258000000     2.307000000    -3.836000000
C    -4.072000000     1.926000000    -4.408000000
H    -3.631000000     0.994000000    -4.064000000
C    -5.753000000     3.567000000    -4.142000000
H    -6.585000000     4.077000000    -3.663000000
C    -5.002000000     4.382000000    -5.039000000
H    -5.357000000     5.401000000    -5.167000000
C    -3.965000000     3.866000000    -5.839000000
H    -3.483000000     4.437000000    -6.629000000
C    -3.437000000     2.650000000    -5.443000000
O    -2.340000000     2.189000000    -6.167000000
C    -1.214000000     1.721000000    -5.546000000
C    -0.380000000     0.853000000    -6.273000000
H    -0.691000000     0.465000000    -7.240000000
C     0.854000000     0.531000000    -5.845000000
O     1.657000000    -0.356000000    -6.519000000
C     2.902000000    -0.647000000    -6.139000000
C     4.014000000     0.128000000    -6.548000000
H     3.757000000     0.944000000    -7.219000000
C     5.270000000    -0.292000000    -6.100000000
H     6.127000000     0.252000000    -6.489000000
C     5.412000000    -1.415000000    -5.295000000
H     6.413000000    -1.782000000    -5.082000000
C     4.262000000    -2.156000000    -4.917000000
C     3.026000000    -1.768000000    -5.382000000
H     2.132000000    -2.260000000    -5.006000000
C    -0.741000000    -2.249000000     0.154000000
H    -0.384000000    -3.206000000     0.525000000
C     0.080000000    -1.214000000     0.442000000
H     1.028000000    -1.430000000     0.928000000
C    -0.193000000     0.090000000    -0.109000000
H     0.426000000     0.957000000     0.038000000
C    -1.411000000     0.364000000    -0.691000000
H    -1.647000000     1.364000000    -1.045000000
C    -2.364000000    -0.697000000    -0.797000000
H    -3.324000000    -0.567000000    -1.291000000
C    -1.970000000    -2.021000000    -0.481000000
C    -2.783000000    -3.284000000    -0.979000000
O    -3.753000000    -3.117000000    -1.657000000
O    -2.434000000    -4.370000000    -0.559000000
O    -7.986000000    -5.015000000    -1.607000000
H    -7.619000000    -5.715000000    -2.146000000
H    -7.323000000    -4.325000000    -1.625000000
O    -7.108000000    -6.127000000     2.173000000
H    -7.576000000    -5.514000000     2.738000000
H    -6.447000000    -5.591000000     1.733000000
O     1.607000000    -6.383000000    -3.721000000
H     2.080000000    -5.928000000    -4.418000000
H     1.261000000    -5.681000000    -3.169000000
O    -9.234000000    -2.250000000    -0.141000000
H    -8.304000000    -2.401000000     0.029000000
H    -9.455000000    -2.870000000    -0.836000000
O    -0.557000000    -3.200000000    -4.504000000
H    -0.499000000    -3.879000000    -3.832000000
H     0.089000000    -2.546000000    -4.240000000
O    -4.364000000    -5.513000000    -3.081000000
H    -4.732000000    -5.234000000    -3.919000000
H    -4.128000000    -4.697000000    -2.640000000
O    -1.877000000    -6.429000000    -5.706000000
H    -2.032000000    -6.598000000    -4.777000000
H    -0.999000000    -6.772000000    -5.869000000
O     1.314000000    -1.762000000    -2.208000000
H     0.698000000    -1.332000000    -1.615000000
H     2.167000000    -1.397000000    -1.973000000
O    -6.424000000    -7.171000000    -1.764000000
H    -6.300000000    -6.723000000    -0.928000000
H    -5.695000000    -6.873000000    -2.307000000
O    -4.185000000    -1.038000000    -6.296000000
H    -3.996000000    -1.620000000    -5.560000000
H    -3.372000000    -1.021000000    -6.802000000
O    -5.865000000    -4.029000000    -5.369000000
H    -5.096000000    -4.256000000    -5.892000000
H    -6.060000000    -3.124000000    -5.611000000
O    -0.567000000    -8.581000000     1.112000000
H    -0.707000000    -7.801000000     0.575000000
H     0.186000000    -8.363000000     1.660000000
O    -2.589000000    -7.389000000    -2.837000000
H    -3.007000000    -8.208000000    -2.571000000
H    -3.312000000    -6.767000000    -2.923000000
O    -1.186000000    -6.464000000    -0.760000000
H    -1.662000000    -6.873000000    -1.483000000
H    -1.719000000    -5.705000000    -0.522000000
O    -3.826000000    -8.000000000     0.441000000
H    -2.901000000    -8.127000000     0.652000000
H    -3.911000000    -8.312000000    -0.460000000
O    -6.332000000    -3.005000000    -1.663000000
H    -5.381000000    -3.044000000    -1.563000000
H    -6.468000000    -2.516000000    -2.474000000
O    -4.906000000    -5.627000000     0.065000000
H    -4.178000000    -5.069000000    -0.209000000
H    -4.489000000    -6.439000000     0.355000000
O     0.535000000    -4.679000000    -2.137000000
H     1.020000000    -4.061000000    -1.589000000
H    -0.180000000    -4.985000000    -1.580000000
O    -3.345000000    -2.604000000    -4.372000000
H    -2.491000000    -2.948000000    -4.632000000
H    -3.402000000    -2.787000000    -3.434000000
