215
-1459.58606
C    -3.502000000    -3.125000000     1.841000000
H    -4.229000000    -2.318000000     1.866000000
C    -2.373000000    -3.032000000     2.730000000
C    -1.526000000    -4.105000000     2.776000000
H    -0.662000000    -4.074000000     3.435000000
C    -1.915000000    -1.712000000     3.308000000
O    -3.050000000    -0.841000000     3.612000000
H    -1.349000000    -1.148000000     2.553000000
O    -1.128000000    -1.864000000     4.498000000
C    -0.057000000    -0.991000000     4.544000000
C     1.124000000    -1.544000000     4.145000000
H     1.163000000    -2.579000000     3.814000000
C     2.181000000    -0.690000000     3.951000000
O     3.309000000    -1.230000000     3.525000000
C     2.139000000     0.670000000     4.200000000
C     3.223000000     1.746000000     4.037000000
H     3.120000000     2.637000000     4.658000000
C     3.321000000     2.130000000     2.534000000
C     2.701000000     3.334000000     2.203000000
H     2.207000000     3.968000000     2.935000000
H     4.249000000     1.450000000     4.263000000
C     0.921000000     1.205000000     4.617000000
H     0.838000000     2.271000000     4.815000000
C    -0.130000000     0.361000000     4.908000000
C    -1.436000000     0.940000000     5.296000000
H    -1.378000000     1.736000000     6.041000000
H    -2.011000000     0.096000000     5.683000000
C    -2.206000000     1.390000000     4.098000000
C    -2.153000000     2.714000000     3.669000000
H    -1.578000000     3.462000000     4.208000000
C    -2.944000000     0.459000000     3.245000000
C    -3.591000000     0.852000000     2.100000000
H    -4.133000000     0.114000000     1.515000000
C    -3.550000000     2.193000000     1.718000000
O    -4.197000000     2.484000000     0.536000000
C    -3.441000000     2.615000000    -0.736000000
C    -4.072000000     1.810000000    -1.849000000
C    -3.834000000     2.111000000    -3.192000000
H    -3.176000000     2.956000000    -3.378000000
C    -4.968000000     0.806000000    -1.530000000
H    -5.232000000     0.716000000    -0.479000000
O    -3.213000000     4.029000000    -1.026000000
H    -2.493000000     2.101000000    -0.517000000
C    -2.789000000     3.167000000     2.499000000
C    -2.727000000     4.543000000     1.847000000
H    -2.455000000     5.249000000     2.634000000
H    -3.750000000     4.779000000     1.545000000
C    -1.748000000     4.757000000     0.717000000
C    -0.412000000     5.036000000     1.137000000
H    -0.186000000     5.269000000     2.174000000
C    -1.985000000     4.520000000    -0.667000000
C    -0.987000000     4.450000000    -1.617000000
H    -1.236000000     4.143000000    -2.630000000
C     0.335000000     4.626000000    -1.171000000
O     1.286000000     4.385000000    -2.145000000
C     1.994000000     3.137000000    -2.065000000
C     2.281000000     2.417000000    -3.386000000
C     1.393000000     2.382000000    -4.329000000
H     0.507000000     3.000000000    -4.216000000
C     3.296000000     1.403000000    -3.446000000
H     4.191000000     1.401000000    -2.828000000
O     3.190000000     3.410000000    -1.387000000
H     1.346000000     2.504000000    -1.440000000
C     0.624000000     4.980000000     0.129000000
C     2.084000000     5.108000000     0.544000000
H     2.170000000     5.790000000     1.393000000
H     2.683000000     5.611000000    -0.218000000
C     2.645000000     3.767000000     0.914000000
C     3.244000000     2.987000000    -0.070000000
C     3.841000000     1.787000000     0.237000000
H     4.283000000     1.169000000    -0.541000000
C     3.789000000     1.318000000     1.556000000
O     4.330000000     0.074000000     1.732000000
C     3.510000000    -1.076000000     2.067000000
H     2.561000000    -0.862000000     1.552000000
C     4.129000000    -2.384000000     1.489000000
C     3.701000000    -3.658000000     1.909000000
H     3.124000000    -3.740000000     2.827000000
C     5.014000000    -2.240000000     0.399000000
H     5.423000000    -1.302000000     0.032000000
C     5.293000000    -3.317000000    -0.422000000
O     6.121000000    -3.206000000    -1.462000000
C     4.945000000    -4.611000000    -0.005000000
H     5.353000000    -5.425000000    -0.599000000
C     4.110000000    -4.777000000     1.143000000
O     3.815000000    -6.087000000     1.506000000
C     2.691000000    -6.303000000     2.324000000
C     1.359000000    -6.371000000     1.835000000
H     1.182000000    -6.297000000     0.765000000
C     2.938000000    -6.307000000     3.703000000
H     3.946000000    -6.339000000     4.109000000
C     1.827000000    -6.396000000     4.620000000
H     2.011000000    -6.492000000     5.687000000
C     0.522000000    -6.401000000     4.133000000
H    -0.266000000    -6.377000000     4.882000000
C     0.284000000    -6.470000000     2.672000000
O    -0.988000000    -6.466000000     2.168000000
C    -1.797000000    -5.326000000     2.111000000
C    -2.915000000    -5.419000000     1.311000000
H    -3.170000000    -6.301000000     0.730000000
C    -3.815000000    -4.317000000     1.205000000
O    -4.970000000    -4.448000000     0.445000000
C    -5.797000000    -3.393000000     0.145000000
C    -5.698000000    -2.539000000    -1.020000000
H    -4.850000000    -2.681000000    -1.685000000
C    -6.823000000    -3.138000000     1.067000000
H    -6.986000000    -3.772000000     1.935000000
C    -7.716000000    -2.068000000     0.930000000
H    -8.380000000    -1.827000000     1.756000000
C    -7.764000000    -1.328000000    -0.260000000
H    -8.505000000    -0.538000000    -0.357000000
C    -6.684000000    -1.551000000    -1.151000000
O    -6.642000000    -0.757000000    -2.245000000
C    -5.564000000     0.061000000    -2.558000000
C    -5.365000000     0.414000000    -3.858000000
H    -5.910000000    -0.068000000    -4.665000000
C    -4.408000000     1.405000000    -4.184000000
O    -4.176000000     1.600000000    -5.508000000
C    -3.054000000     2.343000000    -5.887000000
C    -1.859000000     1.701000000    -5.920000000
H    -1.706000000     0.673000000    -5.602000000
C    -3.155000000     3.567000000    -6.533000000
H    -4.151000000     3.978000000    -6.676000000
C    -1.993000000     4.284000000    -6.895000000
H    -2.120000000     5.324000000    -7.185000000
C    -0.771000000     3.654000000    -6.819000000
H     0.131000000     4.240000000    -6.975000000
C    -0.689000000     2.363000000    -6.346000000
O     0.490000000     1.688000000    -6.372000000
C     1.479000000     1.576000000    -5.444000000
C     2.531000000     0.714000000    -5.635000000
H     2.643000000     0.058000000    -6.494000000
C     3.486000000     0.708000000    -4.675000000
O     4.563000000    -0.132000000    -4.882000000
C     5.468000000    -0.540000000    -3.990000000
C     6.765000000     0.014000000    -3.965000000
H     6.928000000     0.796000000    -4.702000000
C     7.768000000    -0.393000000    -3.113000000
H     8.700000000     0.166000000    -3.112000000
C     7.518000000    -1.427000000    -2.208000000
H     8.280000000    -1.817000000    -1.539000000
C     6.294000000    -2.055000000    -2.249000000
C     5.251000000    -1.608000000    -3.144000000
H     4.341000000    -2.196000000    -3.232000000
C    -0.600000000    -2.637000000    -0.362000000
H    -0.503000000    -3.708000000    -0.203000000
C     0.235000000    -1.774000000     0.349000000
H     0.842000000    -2.192000000     1.147000000
C     0.356000000    -0.403000000     0.050000000
H     1.016000000     0.247000000     0.666000000
C    -0.489000000     0.065000000    -0.951000000
H    -0.548000000     1.088000000    -1.313000000
C    -1.331000000    -0.775000000    -1.689000000
H    -2.051000000    -0.313000000    -2.360000000
C    -1.353000000    -2.188000000    -1.434000000
C    -2.026000000    -3.177000000    -2.388000000
O    -2.463000000    -2.851000000    -3.452000000
O    -1.920000000    -4.347000000    -2.089000000
O     3.275000000    -4.341000000    -4.182000000
H     2.512000000    -3.974000000    -4.628000000
H     3.241000000    -3.967000000    -3.302000000
O    -7.249000000    -6.313000000    -1.239000000
H    -6.789000000    -7.040000000    -1.660000000
H    -7.184000000    -5.593000000    -1.866000000
O    -8.276000000    -3.513000000    -5.555000000
H    -7.535000000    -3.332000000    -4.976000000
H    -8.698000000    -2.662000000    -5.677000000
O    -2.070000000    -4.105000000    -7.285000000
H    -1.820000000    -5.026000000    -7.367000000
H    -1.999000000    -3.758000000    -8.174000000
O     1.291000000    -5.854000000    -7.908000000
H     1.075000000    -5.443000000    -7.071000000
H     1.863000000    -5.222000000    -8.344000000
O    -5.323000000    -1.681000000    -7.634000000
H    -4.953000000    -1.976000000    -8.466000000
H    -5.212000000    -2.427000000    -7.045000000
O     0.584000000    -5.607000000    -2.028000000
H     0.383000000    -6.536000000    -2.142000000
H    -0.256000000    -5.206000000    -1.805000000
O     1.622000000    -3.012000000    -6.035000000
H     2.088000000    -2.829000000    -6.851000000
H     0.774000000    -2.581000000    -6.142000000
O    -3.807000000    -7.677000000    -5.293000000
H    -3.539000000    -7.519000000    -6.198000000
H    -3.251000000    -7.096000000    -4.774000000
O    -1.820000000    -0.439000000    -8.343000000
H    -1.624000000    -1.163000000    -7.749000000
H    -2.494000000     0.068000000    -7.889000000
O    -1.078000000    -2.150000000    -5.967000000
H    -1.613000000    -2.721000000    -6.519000000
H    -1.540000000    -2.125000000    -5.129000000
O    -3.924000000    -8.651000000    -1.158000000
H    -4.807000000    -8.894000000    -0.881000000
H    -4.055000000    -7.922000000    -1.764000000
O    -0.674000000    -8.170000000    -1.401000000
H    -1.490000000    -8.150000000    -1.900000000
H    -0.714000000    -8.991000000    -0.911000000
O     0.491000000    -5.165000000    -5.171000000
H     0.703000000    -4.243000000    -5.318000000
H     0.667000000    -5.306000000    -4.241000000
O    -4.165000000    -5.722000000    -1.876000000
H    -3.296000000    -5.324000000    -1.933000000
H    -4.534000000    -5.376000000    -1.063000000
O    -4.247000000    -3.624000000    -5.592000000
H    -3.619000000    -4.083000000    -6.150000000
H    -3.721000000    -3.292000000    -4.864000000
O    -5.808000000    -5.366000000    -4.329000000
H    -5.134000000    -5.311000000    -3.652000000
H    -5.445000000    -4.881000000    -5.070000000
O     2.131000000    -3.214000000    -1.813000000
H     1.549000000    -2.711000000    -1.243000000
H     1.593000000    -3.942000000    -2.122000000
O    -2.166000000    -6.046000000    -4.090000000
H    -1.415000000    -5.683000000    -4.559000000
H    -2.351000000    -5.407000000    -3.402000000
