215
-1465.44856
C    -2.595000000    -2.647000000     3.621000000
H    -3.189000000    -1.744000000     3.504000000
C    -1.248000000    -2.515000000     3.900000000
C    -0.503000000    -3.693000000     4.080000000
H     0.538000000    -3.664000000     4.394000000
C    -0.519000000    -1.132000000     4.035000000
O    -1.312000000    -0.143000000     4.783000000
H    -0.476000000    -0.783000000     2.992000000
O     0.765000000    -1.353000000     4.628000000
C     1.886000000    -0.631000000     4.134000000
C     2.862000000    -1.315000000     3.426000000
H     2.772000000    -2.397000000     3.360000000
C     3.776000000    -0.609000000     2.731000000
O     4.533000000    -1.192000000     1.779000000
C     3.809000000     0.822000000     2.769000000
C     4.869000000     1.707000000     2.052000000
H     5.011000000     2.604000000     2.658000000
C     4.441000000     2.051000000     0.713000000
C     3.874000000     3.312000000     0.492000000
H     3.654000000     3.944000000     1.348000000
H     5.797000000     1.142000000     1.941000000
C     2.893000000     1.489000000     3.566000000
H     2.894000000     2.572000000     3.661000000
C     1.923000000     0.764000000     4.220000000
C     0.886000000     1.524000000     5.145000000
H     1.286000000     2.423000000     5.621000000
H     0.534000000     0.933000000     5.993000000
C    -0.323000000     1.963000000     4.326000000
C    -0.335000000     3.196000000     3.692000000
H     0.575000000     3.773000000     3.832000000
C    -1.381000000     1.124000000     4.231000000
C    -2.475000000     1.529000000     3.501000000
H    -3.263000000     0.792000000     3.369000000
C    -2.530000000     2.779000000     2.856000000
O    -3.638000000     2.971000000     1.980000000
C    -3.366000000     2.732000000     0.576000000
C    -4.471000000     1.980000000    -0.136000000
C    -4.616000000     2.145000000    -1.473000000
H    -4.108000000     2.957000000    -1.988000000
C    -5.272000000     1.056000000     0.587000000
H    -5.176000000     0.942000000     1.664000000
O    -3.198000000     4.065000000    -0.062000000
H    -2.442000000     2.138000000     0.514000000
C    -1.429000000     3.609000000     2.960000000
C    -1.475000000     4.954000000     2.249000000
H    -0.759000000     5.679000000     2.643000000
H    -2.486000000     5.356000000     2.343000000
C    -0.997000000     4.679000000     0.823000000
C     0.364000000     4.960000000     0.572000000
H     0.913000000     5.334000000     1.432000000
C    -1.860000000     4.367000000    -0.225000000
C    -1.232000000     4.245000000    -1.488000000
H    -1.813000000     3.914000000    -2.345000000
C     0.144000000     4.314000000    -1.698000000
O     0.671000000     3.929000000    -2.932000000
C     1.378000000     2.703000000    -2.983000000
C     0.874000000     1.804000000    -4.124000000
C    -0.423000000     1.942000000    -4.668000000
H    -1.125000000     2.652000000    -4.240000000
C     1.767000000     0.952000000    -4.688000000
H     2.791000000     0.885000000    -4.329000000
O     2.795000000     2.951000000    -2.931000000
H     1.118000000     2.165000000    -2.059000000
C     0.975000000     4.760000000    -0.671000000
C     2.508000000     4.968000000    -0.785000000
H     2.767000000     5.625000000     0.047000000
H     2.731000000     5.488000000    -1.718000000
C     3.340000000     3.707000000    -0.768000000
C     3.487000000     2.770000000    -1.785000000
C     4.075000000     1.510000000    -1.609000000
H     4.188000000     0.801000000    -2.426000000
C     4.565000000     1.184000000    -0.386000000
O     4.943000000    -0.123000000    -0.274000000
C     4.055000000    -1.022000000     0.465000000
H     3.043000000    -0.596000000     0.515000000
C     4.046000000    -2.373000000    -0.159000000
C     3.574000000    -3.488000000     0.525000000
H     3.266000000    -3.367000000     1.560000000
C     4.273000000    -2.472000000    -1.562000000
H     4.450000000    -1.581000000    -2.159000000
C     4.219000000    -3.709000000    -2.152000000
O     4.541000000    -3.900000000    -3.486000000
C     3.855000000    -4.851000000    -1.438000000
H     3.807000000    -5.837000000    -1.893000000
C     3.511000000    -4.716000000    -0.115000000
O     3.164000000    -5.854000000     0.524000000
C     2.795000000    -5.966000000     1.886000000
C     1.493000000    -5.775000000     2.320000000
H     0.698000000    -5.417000000     1.672000000
C     3.740000000    -6.282000000     2.907000000
H     4.771000000    -6.349000000     2.570000000
C     3.369000000    -6.368000000     4.230000000
H     4.095000000    -6.461000000     5.034000000
C     2.036000000    -6.282000000     4.620000000
H     1.803000000    -6.441000000     5.669000000
C     1.122000000    -5.971000000     3.705000000
O    -0.168000000    -6.052000000     3.949000000
C    -1.036000000    -4.957000000     3.843000000
C    -2.398000000    -5.028000000     3.506000000
H    -2.908000000    -5.940000000     3.205000000
C    -3.142000000    -3.926000000     3.375000000
O    -4.390000000    -4.099000000     2.898000000
C    -5.392000000    -3.132000000     2.830000000
C    -5.770000000    -2.496000000     1.634000000
H    -5.383000000    -2.830000000     0.675000000
C    -5.935000000    -2.671000000     4.027000000
H    -5.707000000    -3.201000000     4.948000000
C    -6.766000000    -1.555000000     4.090000000
H    -7.049000000    -1.100000000     5.036000000
C    -7.109000000    -0.920000000     2.895000000
H    -7.691000000    -0.004000000     2.831000000
C    -6.555000000    -1.365000000     1.700000000
O    -6.978000000    -0.699000000     0.526000000
C    -6.269000000     0.327000000    -0.079000000
C    -6.318000000     0.461000000    -1.439000000
H    -7.114000000    -0.062000000    -1.964000000
C    -5.584000000     1.448000000    -2.127000000
O    -5.838000000     1.619000000    -3.479000000
C    -5.016000000     2.254000000    -4.454000000
C    -3.980000000     1.507000000    -5.056000000
H    -3.820000000     0.471000000    -4.769000000
C    -5.414000000     3.404000000    -5.098000000
H    -6.407000000     3.835000000    -5.003000000
C    -4.507000000     4.077000000    -6.001000000
H    -4.883000000     5.015000000    -6.402000000
C    -3.328000000     3.498000000    -6.378000000
H    -2.692000000     3.981000000    -7.115000000
C    -3.112000000     2.191000000    -5.912000000
O    -2.061000000     1.476000000    -6.420000000
C    -0.812000000     1.234000000    -5.767000000
C     0.037000000     0.276000000    -6.359000000
H    -0.127000000    -0.241000000    -7.301000000
C     1.310000000     0.150000000    -5.757000000
O     2.035000000    -0.855000000    -6.317000000
C     3.213000000    -1.469000000    -5.926000000
C     4.383000000    -1.177000000    -6.631000000
H     4.273000000    -0.498000000    -7.473000000
C     5.583000000    -1.888000000    -6.285000000
H     6.470000000    -1.806000000    -6.907000000
C     5.677000000    -2.766000000    -5.259000000
H     6.580000000    -3.351000000    -5.103000000
C     4.561000000    -2.994000000    -4.532000000
C     3.360000000    -2.303000000    -4.822000000
H     2.575000000    -2.477000000    -4.090000000
C    -1.072000000    -2.451000000     0.440000000
H    -1.013000000    -3.371000000     1.017000000
C    -0.068000000    -1.490000000     0.601000000
H     0.756000000    -1.664000000     1.287000000
C    -0.072000000    -0.368000000    -0.180000000
H     0.756000000     0.303000000    -0.234000000
C    -1.092000000    -0.193000000    -1.144000000
H    -1.075000000     0.706000000    -1.755000000
C    -2.149000000    -1.111000000    -1.177000000
H    -2.985000000    -0.884000000    -1.833000000
C    -2.044000000    -2.373000000    -0.520000000
C    -3.083000000    -3.454000000    -0.714000000
O    -3.977000000    -3.319000000    -1.530000000
O    -2.975000000    -4.505000000    -0.148000000
O    -7.230000000    -6.077000000    -1.601000000
H    -6.772000000    -5.879000000    -0.785000000
H    -7.378000000    -5.222000000    -2.006000000
O    -5.914000000    -6.342000000     1.077000000
H    -5.591000000    -5.447000000     1.186000000
H    -5.135000000    -6.890000000     1.170000000
O    -8.671000000    -3.735000000     0.267000000
H    -7.954000000    -3.483000000    -0.315000000
H    -9.455000000    -3.381000000    -0.151000000
O    -7.390000000    -4.003000000    -4.401000000
H    -7.671000000    -4.806000000    -4.839000000
H    -6.438000000    -4.085000000    -4.338000000
O    -7.555000000    -7.487000000    -3.846000000
H    -7.368000000    -7.308000000    -2.924000000
H    -6.923000000    -8.163000000    -4.091000000
O    -0.741000000    -2.713000000    -4.900000000
H    -0.308000000    -2.853000000    -4.057000000
H    -1.633000000    -2.452000000    -4.671000000
O    -4.190000000    -6.722000000    -1.733000000
H    -4.588000000    -6.285000000    -2.486000000
H    -4.018000000    -6.016000000    -1.110000000
O    -0.452000000    -8.076000000     2.087000000
H    -0.455000000    -7.382000000     2.746000000
H    -1.099000000    -7.795000000     1.440000000
O    -0.846000000    -6.062000000    -6.133000000
H    -1.741000000    -5.724000000    -6.103000000
H    -0.294000000    -5.280000000    -6.149000000
O     0.714000000    -3.004000000    -2.118000000
H     0.530000000    -3.857000000    -1.724000000
H     0.551000000    -2.376000000    -1.415000000
O    -5.753000000    -9.155000000    -1.357000000
H    -4.992000000    -8.590000000    -1.226000000
H    -5.715000000    -9.398000000    -2.282000000
O    -4.664000000    -4.734000000    -3.601000000
H    -4.388000000    -4.034000000    -3.009000000
H    -4.354000000    -4.456000000    -4.462000000
O    -8.024000000    -5.479000000     3.181000000
H    -7.845000000    -5.970000000     2.380000000
H    -8.716000000    -4.864000000     2.936000000
O    -0.276000000    -5.484000000    -0.867000000
H    -0.513000000    -6.302000000    -1.305000000
H    -1.115000000    -5.085000000    -0.636000000
O    -1.247000000    -7.640000000    -2.085000000
H    -0.696000000    -7.931000000    -2.812000000
H    -2.142000000    -7.797000000    -2.384000000
O    -6.631000000    -3.395000000    -1.628000000
H    -6.677000000    -2.462000000    -1.837000000
H    -5.700000000    -3.563000000    -1.485000000
O    -2.785000000    -7.025000000     0.713000000
H    -2.831000000    -6.090000000     0.514000000
H    -2.998000000    -7.458000000    -0.114000000
O     2.235000000    -5.700000000    -4.212000000
H     2.986000000    -5.232000000    -4.577000000
H     1.876000000    -5.104000000    -3.555000000
O    -3.449000000    -2.191000000    -4.228000000
H    -4.059000000    -1.725000000    -4.801000000
H    -3.921000000    -2.281000000    -3.400000000
