215
-1454.98186
C    -2.448000000    -2.664000000     3.141000000
H    -3.008000000    -1.760000000     3.364000000
C    -1.073000000    -2.873000000     3.259000000
C    -0.447000000    -3.982000000     2.701000000
H     0.626000000    -4.107000000     2.815000000
C    -0.166000000    -1.678000000     3.677000000
O    -0.844000000    -0.904000000     4.709000000
H     0.071000000    -1.007000000     2.839000000
O     1.086000000    -2.170000000     4.204000000
C     2.240000000    -1.517000000     3.854000000
C     3.012000000    -2.054000000     2.853000000
H     2.903000000    -3.098000000     2.569000000
C     3.955000000    -1.354000000     2.221000000
O     4.546000000    -1.943000000     1.111000000
C     4.195000000     0.010000000     2.515000000
C     5.264000000     0.773000000     1.784000000
H     5.505000000     1.639000000     2.403000000
C     4.614000000     1.475000000     0.548000000
C     4.194000000     2.849000000     0.568000000
H     4.336000000     3.406000000     1.491000000
H     6.170000000     0.198000000     1.582000000
C     3.428000000     0.575000000     3.567000000
H     3.557000000     1.613000000     3.864000000
C     2.447000000    -0.156000000     4.211000000
C     1.527000000     0.509000000     5.287000000
H     2.166000000     1.126000000     5.921000000
H     1.272000000    -0.302000000     5.973000000
C     0.326000000     1.224000000     4.767000000
C     0.386000000     2.588000000     4.434000000
H     1.270000000     3.195000000     4.613000000
C    -0.868000000     0.513000000     4.547000000
C    -1.991000000     1.138000000     3.959000000
H    -2.846000000     0.495000000     3.765000000
C    -1.905000000     2.477000000     3.667000000
O    -3.019000000     3.041000000     3.019000000
C    -2.977000000     2.977000000     1.566000000
C    -4.239000000     2.616000000     0.872000000
C    -4.550000000     2.967000000    -0.443000000
H    -3.832000000     3.570000000    -0.992000000
C    -5.009000000     1.667000000     1.561000000
H    -4.747000000     1.407000000     2.583000000
O    -2.553000000     4.286000000     1.176000000
H    -2.188000000     2.234000000     1.378000000
C    -0.727000000     3.175000000     3.845000000
C    -0.530000000     4.579000000     3.357000000
H     0.378000000     5.053000000     3.735000000
H    -1.372000000     5.223000000     3.617000000
C    -0.300000000     4.628000000     1.798000000
C     1.093000000     4.731000000     1.454000000
H     1.886000000     4.852000000     2.188000000
C    -1.287000000     4.479000000     0.794000000
C    -0.920000000     4.457000000    -0.532000000
H    -1.678000000     4.387000000    -1.307000000
C     0.453000000     4.478000000    -0.824000000
O     0.693000000     4.308000000    -2.136000000
C     1.137000000     2.980000000    -2.490000000
C     0.578000000     2.510000000    -3.801000000
C    -0.781000000     2.628000000    -4.085000000
H    -1.474000000     3.099000000    -3.392000000
C     1.405000000     1.870000000    -4.739000000
H     2.440000000     1.676000000    -4.468000000
O     2.503000000     3.036000000    -2.553000000
H     0.827000000     2.270000000    -1.709000000
C     1.456000000     4.661000000     0.105000000
C     2.909000000     4.733000000    -0.382000000
H     3.446000000     5.438000000     0.255000000
H     3.030000000     5.211000000    -1.356000000
C     3.430000000     3.334000000    -0.447000000
C     3.270000000     2.528000000    -1.565000000
C     3.782000000     1.257000000    -1.679000000
H     3.750000000     0.823000000    -2.675000000
C     4.475000000     0.713000000    -0.616000000
O     4.735000000    -0.600000000    -0.820000000
C     3.934000000    -1.612000000    -0.167000000
H     3.043000000    -1.050000000     0.150000000
C     3.715000000    -2.765000000    -1.055000000
C     3.812000000    -4.077000000    -0.574000000
H     3.983000000    -4.236000000     0.488000000
C     3.390000000    -2.584000000    -2.415000000
H     3.201000000    -1.552000000    -2.699000000
C     3.301000000    -3.693000000    -3.290000000
O     2.918000000    -3.457000000    -4.626000000
C     3.320000000    -5.043000000    -2.776000000
H     3.233000000    -5.938000000    -3.387000000
C     3.650000000    -5.187000000    -1.424000000
O     3.571000000    -6.428000000    -0.840000000
C     2.824000000    -6.727000000     0.255000000
C     1.533000000    -6.204000000     0.372000000
H     1.023000000    -5.889000000    -0.535000000
C     3.292000000    -7.561000000     1.289000000
H     4.251000000    -8.055000000     1.153000000
C     2.494000000    -7.854000000     2.409000000
H     2.847000000    -8.579000000     3.139000000
C     1.203000000    -7.381000000     2.473000000
H     0.526000000    -7.599000000     3.295000000
C     0.715000000    -6.481000000     1.495000000
O    -0.617000000    -6.077000000     1.534000000
C    -1.201000000    -5.021000000     2.171000000
C    -2.492000000    -4.840000000     1.976000000
H    -3.119000000    -5.514000000     1.398000000
C    -3.172000000    -3.687000000     2.444000000
O    -4.580000000    -3.599000000     2.104000000
C    -5.403000000    -2.656000000     2.687000000
C    -5.918000000    -1.663000000     1.899000000
H    -5.569000000    -1.725000000     0.871000000
C    -5.723000000    -2.776000000     4.019000000
H    -5.415000000    -3.613000000     4.640000000
C    -6.552000000    -1.783000000     4.567000000
H    -6.840000000    -1.877000000     5.611000000
C    -7.044000000    -0.751000000     3.794000000
H    -7.667000000    -0.043000000     4.335000000
C    -6.728000000    -0.643000000     2.420000000
O    -7.143000000     0.508000000     1.667000000
C    -6.238000000     1.256000000     0.980000000
C    -6.543000000     1.625000000    -0.330000000
H    -7.436000000     1.207000000    -0.787000000
C    -5.665000000     2.433000000    -1.060000000
O    -6.100000000     2.882000000    -2.253000000
C    -5.182000000     3.254000000    -3.225000000
C    -4.303000000     2.372000000    -3.849000000
H    -4.132000000     1.364000000    -3.480000000
C    -5.155000000     4.615000000    -3.639000000
H    -5.690000000     5.357000000    -3.052000000
C    -4.380000000     4.952000000    -4.739000000
H    -4.197000000     6.011000000    -4.907000000
C    -3.541000000     4.047000000    -5.352000000
H    -2.912000000     4.464000000    -6.135000000
C    -3.500000000     2.746000000    -4.908000000
O    -2.610000000     1.910000000    -5.483000000
C    -1.299000000     1.924000000    -5.216000000
C    -0.475000000     1.210000000    -6.035000000
H    -0.937000000     0.672000000    -6.859000000
C     0.910000000     1.294000000    -5.865000000
O     1.680000000     0.610000000    -6.708000000
C     2.654000000    -0.297000000    -6.290000000
C     3.944000000    -0.147000000    -6.754000000
H     4.161000000     0.741000000    -7.343000000
C     4.900000000    -1.124000000    -6.543000000
H     5.932000000    -0.996000000    -6.860000000
C     4.563000000    -2.162000000    -5.709000000
H     5.275000000    -2.900000000    -5.349000000
C     3.248000000    -2.326000000    -5.288000000
C     2.267000000    -1.394000000    -5.604000000
H     1.222000000    -1.432000000    -5.305000000
C    -1.172000000    -2.725000000    -0.380000000
H    -1.157000000    -3.812000000    -0.403000000
C     0.010000000    -2.107000000     0.060000000
H     0.899000000    -2.684000000     0.299000000
C     0.064000000    -0.752000000     0.208000000
H     1.022000000    -0.233000000     0.607000000
C    -1.066000000     0.006000000     0.052000000
H    -0.986000000     1.018000000     0.439000000
C    -2.237000000    -0.510000000    -0.545000000
H    -3.119000000     0.125000000    -0.546000000
C    -2.242000000    -1.943000000    -0.799000000
C    -3.494000000    -2.550000000    -1.269000000
O    -4.308000000    -1.873000000    -1.846000000
O    -3.606000000    -3.750000000    -1.403000000
O    -7.354000000    -5.257000000     1.646000000
H    -6.695000000    -5.891000000     1.928000000
H    -6.999000000    -4.888000000     0.837000000
O    -4.579000000    -5.724000000    -2.910000000
H    -4.195000000    -5.272000000    -3.662000000
H    -4.438000000    -5.128000000    -2.175000000
O    -9.298000000    -3.090000000     0.253000000
H    -8.493000000    -2.657000000    -0.030000000
H    -9.705000000    -2.469000000     0.857000000
O    -8.257000000    -0.863000000    -3.830000000
H    -9.101000000    -0.419000000    -3.913000000
H    -7.725000000    -0.501000000    -4.539000000
O     0.243000000    -4.987000000    -5.284000000
H    -0.246000000    -5.361000000    -4.552000000
H     0.902000000    -4.428000000    -4.871000000
O    -0.455000000    -2.489000000    -3.314000000
H    -0.521000000    -3.388000000    -2.993000000
H    -1.329000000    -2.290000000    -3.649000000
O    -3.016000000    -2.118000000    -7.065000000
H    -3.666000000    -1.628000000    -7.569000000
H    -2.859000000    -1.580000000    -6.289000000
O    -5.940000000    -4.526000000    -0.475000000
H    -6.382000000    -3.861000000    -1.003000000
H    -5.015000000    -4.283000000    -0.510000000
O     0.769000000    -0.151000000    -2.309000000
H     0.767000000    -0.799000000    -3.013000000
H     0.285000000    -0.569000000    -1.596000000
O    -6.258000000    -7.639000000    -3.818000000
H    -5.712000000    -6.920000000    -3.500000000
H    -5.724000000    -8.422000000    -3.686000000
O    -5.623000000    -7.619000000     1.670000000
H    -5.238000000    -7.541000000     0.797000000
H    -5.493000000    -8.537000000     1.908000000
O    -4.880000000    -7.784000000    -0.817000000
H    -4.089000000    -8.047000000    -1.288000000
H    -5.356000000    -7.233000000    -1.438000000
O    -6.189000000    -0.180000000    -5.798000000
H    -6.151000000    -1.131000000    -5.703000000
H    -5.362000000     0.052000000    -6.220000000
O    -0.005000000    -7.494000000    -3.624000000
H    -0.491000000    -6.893000000    -3.059000000
H     0.486000000    -8.049000000    -3.017000000
O    -5.657000000    -2.805000000    -4.074000000
H    -6.605000000    -2.671000000    -4.074000000
H    -5.381000000    -2.558000000    -3.191000000
O    -3.393000000    -4.295000000    -5.158000000
H    -4.073000000    -3.638000000    -5.011000000
H    -2.749000000    -3.853000000    -5.712000000
O    -7.215000000    -2.150000000    -1.597000000
H    -7.700000000    -1.704000000    -2.292000000
H    -6.362000000    -1.717000000    -1.584000000
O    -1.493000000    -5.200000000    -2.958000000
H    -2.186000000    -5.331000000    -2.311000000
H    -1.863000000    -4.576000000    -3.582000000
O    -2.726000000    -1.406000000    -4.190000000
H    -3.413000000    -1.509000000    -3.532000000
H    -2.340000000    -0.551000000    -4.002000000
