215
-1454.69300
C    -2.850000000    -1.951000000     3.507000000
H    -3.203000000    -0.935000000     3.661000000
C    -1.477000000    -2.213000000     3.691000000
C    -1.006000000    -3.533000000     3.444000000
H     0.063000000    -3.724000000     3.501000000
C    -0.499000000    -1.086000000     4.023000000
O    -1.082000000    -0.135000000     4.890000000
H    -0.246000000    -0.559000000     3.091000000
O     0.788000000    -1.580000000     4.632000000
C     1.926000000    -1.023000000     4.061000000
C     2.596000000    -1.864000000     3.138000000
H     2.362000000    -2.915000000     2.984000000
C     3.738000000    -1.379000000     2.469000000
O     4.288000000    -2.227000000     1.568000000
C     4.236000000    -0.102000000     2.709000000
C     5.404000000     0.503000000     1.903000000
H     5.827000000     1.308000000     2.509000000
C     4.940000000     0.945000000     0.527000000
C     4.536000000     2.295000000     0.281000000
H     4.645000000     2.988000000     1.111000000
H     6.192000000    -0.242000000     1.780000000
C     3.537000000     0.759000000     3.610000000
H     3.925000000     1.770000000     3.699000000
C     2.355000000     0.262000000     4.338000000
C     1.494000000     1.074000000     5.296000000
H     2.145000000     1.801000000     5.786000000
H     1.078000000     0.485000000     6.115000000
C     0.333000000     1.793000000     4.583000000
C     0.549000000     3.074000000     3.998000000
H     1.497000000     3.600000000     4.079000000
C    -0.955000000     1.170000000     4.521000000
C    -1.972000000     1.818000000     3.874000000
H    -2.958000000     1.360000000     3.913000000
C    -1.780000000     3.067000000     3.163000000
O    -2.740000000     3.672000000     2.417000000
C    -2.685000000     3.417000000     1.050000000
C    -4.021000000     3.089000000     0.445000000
C    -4.363000000     3.587000000    -0.800000000
H    -3.657000000     4.202000000    -1.352000000
C    -4.930000000     2.304000000     1.127000000
H    -4.631000000     2.003000000     2.127000000
O    -2.179000000     4.630000000     0.443000000
H    -2.038000000     2.552000000     0.842000000
C    -0.506000000     3.685000000     3.220000000
C    -0.113000000     5.005000000     2.554000000
H     0.799000000     5.409000000     3.001000000
H    -0.856000000     5.796000000     2.675000000
C     0.247000000     4.689000000     1.028000000
C     1.562000000     4.604000000     0.644000000
H     2.349000000     4.846000000     1.353000000
C    -0.807000000     4.623000000     0.053000000
C    -0.454000000     4.325000000    -1.256000000
H    -1.292000000     4.238000000    -1.943000000
C     0.843000000     4.063000000    -1.612000000
O     1.101000000     3.425000000    -2.808000000
C     1.489000000     2.029000000    -2.821000000
C     0.725000000     1.330000000    -3.967000000
C    -0.605000000     1.685000000    -4.263000000
H    -1.025000000     2.522000000    -3.711000000
C     1.352000000     0.313000000    -4.764000000
H     2.432000000     0.204000000    -4.724000000
O     2.939000000     1.994000000    -2.933000000
H     1.101000000     1.540000000    -1.915000000
C     1.887000000     4.277000000    -0.658000000
C     3.356000000     4.126000000    -1.068000000
H     3.995000000     4.753000000    -0.442000000
H     3.589000000     4.461000000    -2.081000000
C     3.903000000     2.698000000    -0.868000000
C     3.762000000     1.723000000    -1.881000000
C     4.270000000     0.452000000    -1.737000000
H     4.113000000    -0.303000000    -2.503000000
C     4.890000000     0.083000000    -0.543000000
O     5.195000000    -1.186000000    -0.331000000
C     4.057000000    -1.965000000     0.134000000
H     3.093000000    -1.450000000     0.014000000
C     3.882000000    -3.268000000    -0.681000000
C     3.393000000    -4.403000000     0.002000000
H     3.164000000    -4.426000000     1.065000000
C     4.233000000    -3.321000000    -2.057000000
H     4.745000000    -2.491000000    -2.538000000
C     3.835000000    -4.471000000    -2.714000000
O     4.103000000    -4.586000000    -4.077000000
C     3.328000000    -5.583000000    -2.109000000
H     2.910000000    -6.413000000    -2.673000000
C     3.181000000    -5.635000000    -0.758000000
O     2.528000000    -6.677000000    -0.124000000
C     1.906000000    -6.656000000     1.092000000
C     0.624000000    -6.231000000     1.127000000
H     0.005000000    -6.085000000     0.246000000
C     2.646000000    -6.972000000     2.236000000
H     3.655000000    -7.346000000     2.085000000
C     2.050000000    -6.774000000     3.460000000
H     2.555000000    -7.001000000     4.395000000
C     0.774000000    -6.232000000     3.546000000
H     0.230000000    -6.039000000     4.466000000
C    -0.009000000    -5.945000000     2.361000000
O    -1.411000000    -5.724000000     2.467000000
C    -1.857000000    -4.497000000     2.884000000
C    -3.199000000    -4.249000000     2.712000000
H    -3.882000000    -4.994000000     2.313000000
C    -3.652000000    -2.964000000     2.879000000
O    -4.998000000    -2.757000000     2.710000000
C    -5.777000000    -1.633000000     2.943000000
C    -5.841000000    -0.529000000     2.082000000
H    -5.257000000    -0.472000000     1.167000000
C    -6.455000000    -1.622000000     4.125000000
H    -6.406000000    -2.455000000     4.821000000
C    -7.405000000    -0.634000000     4.380000000
H    -8.085000000    -0.671000000     5.227000000
C    -7.682000000     0.330000000     3.380000000
H    -8.498000000     1.047000000     3.400000000
C    -6.840000000     0.454000000     2.297000000
O    -7.049000000     1.418000000     1.333000000
C    -6.147000000     1.974000000     0.558000000
C    -6.499000000     2.504000000    -0.699000000
H    -7.452000000     2.241000000    -1.150000000
C    -5.585000000     3.328000000    -1.373000000
O    -5.844000000     3.766000000    -2.603000000
C    -4.900000000     3.732000000    -3.617000000
C    -4.232000000     2.511000000    -3.883000000
H    -4.404000000     1.659000000    -3.230000000
C    -4.560000000     4.830000000    -4.321000000
H    -5.016000000     5.781000000    -4.056000000
C    -3.612000000     4.833000000    -5.305000000
H    -3.376000000     5.799000000    -5.745000000
C    -2.961000000     3.662000000    -5.631000000
H    -2.128000000     3.795000000    -6.317000000
C    -3.317000000     2.452000000    -4.997000000
O    -2.712000000     1.263000000    -5.410000000
C    -1.373000000     0.989000000    -5.182000000
C    -0.781000000    -0.035000000    -5.944000000
H    -1.418000000    -0.423000000    -6.735000000
C     0.585000000    -0.380000000    -5.711000000
O     1.161000000    -1.389000000    -6.377000000
C     2.437000000    -1.918000000    -6.130000000
C     3.541000000    -1.403000000    -6.746000000
H     3.417000000    -0.517000000    -7.363000000
C     4.781000000    -2.042000000    -6.593000000
H     5.641000000    -1.687000000    -7.155000000
C     4.898000000    -3.188000000    -5.771000000
H     5.857000000    -3.661000000    -5.576000000
C     3.807000000    -3.608000000    -5.002000000
C     2.537000000    -3.018000000    -5.252000000
H     1.684000000    -3.441000000    -4.728000000
C    -1.285000000    -2.118000000     0.205000000
H    -1.319000000    -3.187000000     0.398000000
C    -0.010000000    -1.553000000     0.504000000
H     0.802000000    -2.105000000     0.969000000
C     0.256000000    -0.222000000     0.160000000
H     1.258000000     0.084000000     0.288000000
C    -0.819000000     0.583000000    -0.313000000
H    -0.763000000     1.652000000    -0.503000000
C    -2.018000000     0.009000000    -0.710000000
H    -2.720000000     0.698000000    -1.173000000
C    -2.312000000    -1.352000000    -0.427000000
C    -3.456000000    -2.011000000    -1.046000000
O    -4.348000000    -1.266000000    -1.457000000
O    -3.471000000    -3.184000000    -1.202000000
O    -7.532000000    -4.733000000     2.253000000
H    -7.102000000    -4.133000000     2.863000000
H    -7.453000000    -4.305000000     1.401000000
O    -5.015000000    -5.107000000    -0.047000000
H    -4.378000000    -4.500000000    -0.423000000
H    -5.734000000    -4.548000000     0.246000000
O    -9.403000000     0.447000000     0.166000000
H    -9.145000000     1.356000000     0.319000000
H    -8.577000000    -0.015000000     0.021000000
O    -7.866000000     0.656000000    -3.180000000
H    -7.746000000     1.552000000    -3.493000000
H    -8.726000000     0.399000000    -3.511000000
O    -3.463000000    -6.516000000    -4.938000000
H    -3.137000000    -7.125000000    -4.275000000
H    -4.121000000    -5.993000000    -4.479000000
O    -2.351000000    -2.991000000    -6.028000000
H    -2.597000000    -3.671000000    -5.400000000
H    -2.821000000    -2.211000000    -5.733000000
O    -5.535000000    -3.805000000    -6.237000000
H    -5.765000000    -3.148000000    -6.894000000
H    -4.886000000    -3.372000000    -5.683000000
O    -7.301000000    -3.382000000     0.037000000
H    -8.136000000    -3.735000000    -0.270000000
H    -7.225000000    -2.533000000    -0.400000000
O     0.144000000    -2.880000000    -2.766000000
H     0.088000000    -1.972000000    -2.470000000
H    -0.391000000    -3.370000000    -2.141000000
O    -8.652000000    -4.874000000    -4.257000000
H    -8.466000000    -5.373000000    -5.053000000
H    -7.809000000    -4.817000000    -3.808000000
O    -5.657000000    -7.612000000     0.807000000
H    -6.545000000    -7.710000000     0.465000000
H    -5.383000000    -6.742000000     0.518000000
O     0.393000000    -6.429000000    -2.834000000
H    -0.097000000    -5.890000000    -2.214000000
H     0.188000000    -7.330000000    -2.583000000
O    -5.248000000    -0.832000000    -3.931000000
H    -5.923000000    -0.190000000    -3.709000000
H    -4.842000000    -1.053000000    -3.093000000
O    -6.619000000    -5.459000000    -2.387000000
H    -7.171000000    -6.123000000    -1.974000000
H    -6.110000000    -5.089000000    -1.665000000
O    -4.292000000    -4.085000000    -3.494000000
H    -3.892000000    -3.703000000    -2.712000000
H    -5.217000000    -3.850000000    -3.429000000
O    -6.835000000    -0.853000000    -1.210000000
H    -7.137000000    -0.228000000    -1.869000000
H    -5.882000000    -0.852000000    -1.297000000
O    -1.625000000    -4.954000000    -1.739000000
H    -2.231000000    -4.250000000    -1.507000000
H    -2.019000000    -5.742000000    -1.364000000
O    -0.802000000    -5.310000000    -5.025000000
H    -1.328000000    -6.024000000    -4.664000000
H    -0.341000000    -4.946000000    -4.269000000
O    -4.672000000    -1.171000000    -6.444000000
H    -4.914000000    -0.278000000    -6.686000000
H    -4.821000000    -1.213000000    -5.499000000
