215
-1451.52748
C    -2.527000000    -2.425000000     4.254000000
H    -2.995000000    -1.479000000     4.512000000
C    -1.124000000    -2.417000000     4.235000000
C    -0.463000000    -3.608000000     3.824000000
H     0.622000000    -3.621000000     3.770000000
C    -0.391000000    -1.131000000     4.358000000
O    -1.199000000    -0.149000000     5.044000000
H    -0.317000000    -0.690000000     3.352000000
O     0.987000000    -1.342000000     4.912000000
C     1.965000000    -0.597000000     4.211000000
C     2.812000000    -1.328000000     3.281000000
H     2.625000000    -2.380000000     3.084000000
C     3.756000000    -0.615000000     2.568000000
O     4.277000000    -1.316000000     1.518000000
C     3.901000000     0.774000000     2.738000000
C     5.012000000     1.470000000     1.988000000
H     5.422000000     2.271000000     2.607000000
C     4.485000000     1.971000000     0.646000000
C     3.861000000     3.228000000     0.513000000
H     3.932000000     3.935000000     1.335000000
H     5.892000000     0.861000000     1.770000000
C     3.010000000     1.479000000     3.580000000
H     3.086000000     2.562000000     3.628000000
C     2.047000000     0.808000000     4.412000000
C     1.086000000     1.544000000     5.356000000
H     1.623000000     2.419000000     5.728000000
H     0.807000000     0.962000000     6.236000000
C    -0.157000000     1.983000000     4.594000000
C    -0.204000000     3.257000000     4.018000000
H     0.558000000     4.015000000     4.180000000
C    -1.213000000     1.113000000     4.416000000
C    -2.279000000     1.499000000     3.678000000
H    -3.185000000     0.901000000     3.621000000
C    -2.375000000     2.690000000     3.024000000
O    -3.498000000     2.910000000     2.226000000
C    -3.287000000     2.716000000     0.840000000
C    -4.476000000     1.919000000     0.160000000
C    -4.645000000     2.007000000    -1.223000000
H    -3.980000000     2.649000000    -1.793000000
C    -5.089000000     0.892000000     0.832000000
H    -4.896000000     0.665000000     1.878000000
O    -2.977000000     3.929000000     0.313000000
H    -2.399000000     2.099000000     0.638000000
C    -1.337000000     3.640000000     3.273000000
C    -1.350000000     5.047000000     2.438000000
H    -0.691000000     5.795000000     2.883000000
H    -2.343000000     5.500000000     2.457000000
C    -0.817000000     4.734000000     1.002000000
C     0.495000000     4.968000000     0.721000000
H     1.185000000     5.343000000     1.472000000
C    -1.682000000     4.288000000     0.052000000
C    -1.257000000     3.985000000    -1.239000000
H    -1.967000000     3.550000000    -1.939000000
C     0.092000000     4.164000000    -1.557000000
O     0.474000000     3.822000000    -2.860000000
C     1.218000000     2.658000000    -2.976000000
C     0.866000000     1.893000000    -4.192000000
C    -0.507000000     1.744000000    -4.600000000
H    -1.304000000     2.192000000    -4.013000000
C     1.842000000     1.126000000    -4.818000000
H     2.848000000     1.247000000    -4.424000000
O     2.637000000     3.016000000    -2.913000000
H     1.048000000     2.147000000    -2.017000000
C     0.978000000     4.768000000    -0.572000000
C     2.481000000     4.882000000    -0.833000000
H     3.011000000     5.648000000    -0.263000000
H     2.720000000     5.316000000    -1.805000000
C     3.196000000     3.596000000    -0.652000000
C     3.237000000     2.702000000    -1.717000000
C     3.945000000     1.480000000    -1.606000000
H     3.989000000     0.792000000    -2.446000000
C     4.476000000     1.088000000    -0.409000000
O     5.045000000    -0.231000000    -0.428000000
C     4.080000000    -1.154000000     0.125000000
H     3.065000000    -0.760000000    -0.033000000
C     4.064000000    -2.446000000    -0.658000000
C     3.375000000    -3.558000000    -0.095000000
H     2.847000000    -3.507000000     0.854000000
C     4.579000000    -2.474000000    -1.970000000
H     5.001000000    -1.580000000    -2.422000000
C     4.355000000    -3.588000000    -2.749000000
O     4.643000000    -3.668000000    -4.095000000
C     3.800000000    -4.727000000    -2.158000000
H     3.664000000    -5.669000000    -2.682000000
C     3.296000000    -4.730000000    -0.890000000
O     2.631000000    -5.821000000    -0.495000000
C     2.272000000    -5.914000000     0.844000000
C     0.990000000    -5.958000000     1.305000000
H     0.154000000    -5.870000000     0.617000000
C     3.385000000    -6.115000000     1.741000000
H     4.433000000    -6.157000000     1.454000000
C     3.166000000    -6.257000000     3.155000000
H     3.955000000    -6.453000000     3.877000000
C     1.872000000    -6.075000000     3.627000000
H     1.619000000    -6.173000000     4.680000000
C     0.785000000    -6.055000000     2.715000000
O    -0.513000000    -5.959000000     3.209000000
C    -1.129000000    -4.744000000     3.571000000
C    -2.551000000    -4.730000000     3.634000000
H    -3.165000000    -5.618000000     3.503000000
C    -3.263000000    -3.579000000     4.039000000
O    -4.580000000    -3.530000000     4.199000000
C    -5.381000000    -2.535000000     3.806000000
C    -5.521000000    -2.202000000     2.494000000
H    -4.747000000    -2.477000000     1.781000000
C    -6.400000000    -2.261000000     4.719000000
H    -6.315000000    -2.609000000     5.746000000
C    -7.564000000    -1.646000000     4.265000000
H    -8.313000000    -1.278000000     4.962000000
C    -7.623000000    -1.203000000     2.960000000
H    -8.345000000    -0.489000000     2.572000000
C    -6.571000000    -1.473000000     2.053000000
O    -6.698000000    -0.968000000     0.777000000
C    -6.004000000     0.087000000     0.174000000
C    -6.274000000     0.270000000    -1.143000000
H    -6.959000000    -0.386000000    -1.673000000
C    -5.665000000     1.255000000    -1.898000000
O    -5.985000000     1.471000000    -3.186000000
C    -5.075000000     1.841000000    -4.049000000
C    -4.054000000     1.028000000    -4.505000000
H    -4.024000000    -0.021000000    -4.221000000
C    -5.261000000     3.106000000    -4.591000000
H    -6.108000000     3.665000000    -4.201000000
C    -4.433000000     3.618000000    -5.550000000
H    -4.692000000     4.567000000    -6.012000000
C    -3.377000000     2.783000000    -6.065000000
H    -2.679000000     3.100000000    -6.836000000
C    -3.227000000     1.503000000    -5.541000000
O    -2.211000000     0.665000000    -6.010000000
C    -0.903000000     0.921000000    -5.666000000
C     0.118000000     0.160000000    -6.270000000
H    -0.066000000    -0.577000000    -7.047000000
C     1.464000000     0.275000000    -5.899000000
O     2.352000000    -0.444000000    -6.635000000
C     3.498000000    -0.903000000    -6.207000000
C     4.740000000    -0.438000000    -6.722000000
H     4.802000000     0.374000000    -7.442000000
C     5.902000000    -1.043000000    -6.329000000
H     6.814000000    -0.726000000    -6.830000000
C     5.909000000    -2.088000000    -5.399000000
H     6.788000000    -2.610000000    -5.029000000
C     4.706000000    -2.536000000    -4.885000000
C     3.477000000    -1.993000000    -5.348000000
H     2.522000000    -2.269000000    -4.907000000
C    -0.882000000    -2.405000000     0.477000000
H    -1.041000000    -3.477000000     0.566000000
C     0.268000000    -1.707000000     1.008000000
H     1.057000000    -2.227000000     1.546000000
C     0.436000000    -0.358000000     0.761000000
H     1.310000000     0.180000000     1.182000000
C    -0.549000000     0.238000000    -0.009000000
H    -0.493000000     1.299000000    -0.234000000
C    -1.686000000    -0.379000000    -0.400000000
H    -2.468000000     0.172000000    -0.915000000
C    -1.924000000    -1.707000000    -0.153000000
C    -3.091000000    -2.433000000    -0.848000000
O    -3.637000000    -1.825000000    -1.718000000
O    -3.181000000    -3.662000000    -0.883000000
O    -1.497000000    -7.604000000    -4.120000000
H    -2.049000000    -6.897000000    -4.454000000
H    -1.798000000    -8.384000000    -4.586000000
O    -8.603000000    -4.090000000    -0.180000000
H    -7.714000000    -3.761000000    -0.049000000
H    -8.804000000    -3.879000000    -1.091000000
O    -5.587000000    -6.990000000    -0.384000000
H    -4.639000000    -6.982000000    -0.251000000
H    -5.803000000    -6.089000000    -0.623000000
O    -7.486000000    -7.942000000     0.994000000
H    -7.181000000    -8.807000000     1.266000000
H    -6.767000000    -7.587000000     0.471000000
O    -7.465000000     1.977000000     2.500000000
H    -7.268000000     2.898000000     2.667000000
H    -6.633000000     1.524000000     2.637000000
O     0.422000000    -3.949000000    -4.272000000
H     0.272000000    -4.431000000    -3.459000000
H    -0.438000000    -3.599000000    -4.505000000
O    -3.087000000    -2.590000000    -6.941000000
H    -3.241000000    -3.529000000    -7.041000000
H    -2.928000000    -2.472000000    -6.004000000
O    -5.789000000    -4.365000000    -1.366000000
H    -5.915000000    -4.154000000    -2.291000000
H    -5.020000000    -3.858000000    -1.106000000
O    -1.623000000    -8.193000000     1.621000000
H    -1.815000000    -8.212000000     2.559000000
H    -1.914000000    -7.327000000     1.335000000
O    -3.571000000    -5.869000000    -4.659000000
H    -3.361000000    -4.963000000    -4.430000000
H    -4.515000000    -5.939000000    -4.517000000
O     1.596000000    -0.920000000    -2.210000000
H     1.248000000    -1.573000000    -1.604000000
H     1.093000000    -1.047000000    -3.015000000
O    -5.931000000    -1.669000000    -6.433000000
H    -5.186000000    -2.116000000    -6.835000000
H    -5.802000000    -0.746000000    -6.652000000
O    -6.303000000    -5.139000000    -4.424000000
H    -5.747000000    -4.454000000    -4.793000000
H    -7.166000000    -4.732000000    -4.347000000
O    -0.999000000    -4.451000000    -2.086000000
H    -1.802000000    -4.238000000    -1.611000000
H    -0.714000000    -5.284000000    -1.713000000
O    -0.866000000    -7.203000000    -1.323000000
H    -1.201000000    -7.997000000    -1.738000000
H    -0.103000000    -7.496000000    -0.825000000
O    -5.465000000    -2.404000000    -3.423000000
H    -6.255000000    -1.924000000    -3.176000000
H    -4.833000000    -2.196000000    -2.735000000
O    -3.023000000    -6.113000000     0.144000000
H    -2.927000000    -5.171000000     0.003000000
H    -2.452000000    -6.512000000    -0.513000000
O    -2.922000000    -2.566000000    -4.215000000
H    -3.871000000    -2.450000000    -4.261000000
H    -2.707000000    -2.419000000    -3.294000000
O    -8.275000000    -2.292000000    -5.021000000
H    -8.768000000    -2.518000000    -5.810000000
H    -7.488000000    -1.856000000    -5.347000000
