215
-1448.12383
C    -2.547000000    -2.973000000     3.797000000
H    -3.131000000    -2.070000000     3.958000000
C    -1.120000000    -2.927000000     3.768000000
C    -0.352000000    -4.078000000     3.517000000
H     0.728000000    -4.039000000     3.638000000
C    -0.426000000    -1.524000000     3.992000000
O    -1.122000000    -0.615000000     4.846000000
H    -0.228000000    -1.019000000     3.035000000
O     0.872000000    -1.573000000     4.633000000
C     1.881000000    -0.853000000     4.147000000
C     2.742000000    -1.477000000     3.224000000
H     2.699000000    -2.535000000     2.977000000
C     3.676000000    -0.708000000     2.495000000
O     4.418000000    -1.330000000     1.493000000
C     3.764000000     0.634000000     2.745000000
C     4.739000000     1.421000000     2.000000000
H     5.108000000     2.283000000     2.559000000
C     4.146000000     1.904000000     0.691000000
C     3.528000000     3.191000000     0.672000000
H     3.433000000     3.852000000     1.529000000
H     5.560000000     0.710000000     1.889000000
C     2.949000000     1.225000000     3.772000000
H     2.972000000     2.303000000     3.906000000
C     1.970000000     0.494000000     4.436000000
C     1.007000000     1.206000000     5.460000000
H     1.436000000     2.134000000     5.842000000
H     0.758000000     0.572000000     6.313000000
C    -0.248000000     1.613000000     4.642000000
C    -0.312000000     2.879000000     4.088000000
H     0.454000000     3.617000000     4.315000000
C    -1.242000000     0.652000000     4.404000000
C    -2.285000000     0.938000000     3.563000000
H    -3.069000000     0.187000000     3.512000000
C    -2.507000000     2.318000000     3.133000000
O    -3.569000000     2.639000000     2.298000000
C    -3.236000000     2.571000000     0.881000000
C    -4.303000000     1.782000000     0.154000000
C    -4.649000000     2.202000000    -1.118000000
H    -4.149000000     3.055000000    -1.571000000
C    -5.004000000     0.770000000     0.824000000
H    -4.804000000     0.631000000     1.884000000
O    -3.075000000     3.905000000     0.268000000
H    -2.266000000     2.065000000     0.767000000
C    -1.403000000     3.212000000     3.265000000
C    -1.529000000     4.619000000     2.547000000
H    -0.915000000     5.372000000     3.046000000
H    -2.537000000     5.025000000     2.646000000
C    -0.983000000     4.526000000     1.117000000
C     0.382000000     4.869000000     0.928000000
H     0.983000000     5.236000000     1.756000000
C    -1.805000000     4.294000000     0.044000000
C    -1.322000000     4.364000000    -1.250000000
H    -2.051000000     4.206000000    -2.040000000
C     0.084000000     4.555000000    -1.482000000
O     0.471000000     4.181000000    -2.766000000
C     1.177000000     2.930000000    -2.869000000
C     0.687000000     2.099000000    -4.092000000
C    -0.647000000     2.080000000    -4.462000000
H    -1.394000000     2.731000000    -4.015000000
C     1.618000000     1.275000000    -4.737000000
H     2.637000000     1.171000000    -4.374000000
O     2.665000000     3.203000000    -2.973000000
H     1.008000000     2.362000000    -1.942000000
C     0.920000000     4.863000000    -0.373000000
C     2.388000000     5.030000000    -0.637000000
H     2.852000000     5.770000000     0.018000000
H     2.424000000     5.493000000    -1.625000000
C     3.072000000     3.645000000    -0.599000000
C     3.229000000     2.871000000    -1.780000000
C     3.729000000     1.652000000    -1.703000000
H     3.899000000     1.057000000    -2.597000000
C     4.252000000     1.178000000    -0.484000000
O     4.821000000    -0.112000000    -0.418000000
C     3.937000000    -1.089000000     0.140000000
H     2.931000000    -0.647000000     0.173000000
C     4.056000000    -2.409000000    -0.712000000
C     3.467000000    -3.563000000    -0.291000000
H     3.073000000    -3.637000000     0.719000000
C     4.597000000    -2.411000000    -2.025000000
H     4.955000000    -1.495000000    -2.487000000
C     4.589000000    -3.552000000    -2.819000000
O     5.029000000    -3.481000000    -4.154000000
C     3.951000000    -4.642000000    -2.368000000
H     3.945000000    -5.544000000    -2.974000000
C     3.435000000    -4.741000000    -1.051000000
O     2.716000000    -5.892000000    -0.631000000
C     2.556000000    -6.319000000     0.706000000
C     1.316000000    -6.104000000     1.288000000
H     0.528000000    -5.712000000     0.651000000
C     3.579000000    -6.721000000     1.568000000
H     4.616000000    -6.800000000     1.253000000
C     3.349000000    -7.053000000     2.889000000
H     4.141000000    -7.456000000     3.515000000
C     2.060000000    -6.916000000     3.406000000
H     1.794000000    -7.203000000     4.420000000
C     1.049000000    -6.422000000     2.604000000
O    -0.207000000    -6.392000000     3.129000000
C    -0.953000000    -5.271000000     3.249000000
C    -2.412000000    -5.299000000     3.145000000
H    -2.890000000    -6.242000000     2.891000000
C    -3.184000000    -4.177000000     3.393000000
O    -4.530000000    -4.314000000     3.224000000
C    -5.351000000    -3.130000000     3.199000000
C    -5.676000000    -2.448000000     1.969000000
H    -5.341000000    -2.813000000     1.001000000
C    -5.727000000    -2.548000000     4.444000000
H    -5.599000000    -2.965000000     5.440000000
C    -6.330000000    -1.322000000     4.464000000
H    -6.622000000    -0.933000000     5.437000000
C    -6.746000000    -0.782000000     3.297000000
H    -7.435000000     0.058000000     3.267000000
C    -6.456000000    -1.321000000     2.064000000
O    -6.910000000    -0.645000000     0.956000000
C    -6.191000000     0.313000000     0.207000000
C    -6.556000000     0.688000000    -1.089000000
H    -7.400000000     0.288000000    -1.645000000
C    -5.752000000     1.589000000    -1.784000000
O    -6.064000000     1.985000000    -3.037000000
C    -5.153000000     2.510000000    -3.976000000
C    -4.240000000     1.628000000    -4.546000000
H    -4.190000000     0.583000000    -4.250000000
C    -5.160000000     3.835000000    -4.274000000
H    -5.900000000     4.550000000    -3.922000000
C    -4.192000000     4.371000000    -5.119000000
H    -4.056000000     5.434000000    -5.297000000
C    -3.196000000     3.509000000    -5.632000000
H    -2.452000000     3.889000000    -6.327000000
C    -3.294000000     2.145000000    -5.377000000
O    -2.366000000     1.308000000    -5.954000000
C    -1.069000000     1.283000000    -5.562000000
C    -0.112000000     0.648000000    -6.316000000
H    -0.423000000    -0.027000000    -7.109000000
C     1.234000000     0.570000000    -5.860000000
O     1.922000000    -0.532000000    -6.399000000
C     3.260000000    -0.862000000    -6.054000000
C     4.281000000     0.013000000    -6.364000000
H     4.132000000     0.896000000    -6.980000000
C     5.591000000    -0.298000000    -5.943000000
H     6.455000000     0.328000000    -6.150000000
C     5.831000000    -1.489000000    -5.232000000
H     6.826000000    -1.740000000    -4.874000000
C     4.792000000    -2.343000000    -4.904000000
C     3.511000000    -1.998000000    -5.285000000
H     2.654000000    -2.518000000    -4.864000000
C    -1.048000000    -2.081000000    -0.006000000
H    -1.307000000    -3.094000000     0.291000000
C     0.042000000    -1.417000000     0.621000000
H     0.549000000    -1.905000000     1.450000000
C     0.275000000    -0.084000000     0.308000000
H     1.055000000     0.458000000     0.830000000
C    -0.549000000     0.585000000    -0.627000000
H    -0.434000000     1.654000000    -0.788000000
C    -1.571000000    -0.098000000    -1.269000000
H    -2.253000000     0.446000000    -1.918000000
C    -1.955000000    -1.444000000    -0.913000000
C    -3.066000000    -2.162000000    -1.664000000
O    -3.308000000    -1.826000000    -2.825000000
O    -3.421000000    -3.276000000    -1.329000000
O    -9.124000000    -2.978000000     1.348000000
H   -10.026000000    -3.021000000     1.029000000
H    -8.591000000    -2.940000000     0.553000000
O    -5.009000000    -6.390000000     0.927000000
H    -4.469000000    -5.657000000     1.221000000
H    -5.311000000    -6.132000000     0.056000000
O    -4.308000000    -1.392000000    -6.193000000
H    -3.843000000    -0.733000000    -6.708000000
H    -3.638000000    -1.764000000    -5.620000000
O    -8.062000000    -3.375000000    -1.495000000
H    -8.724000000    -3.279000000    -2.179000000
H    -7.350000000    -2.796000000    -1.766000000
O    -2.116000000    -8.038000000     0.506000000
H    -1.755000000    -8.473000000     1.278000000
H    -1.349000000    -7.721000000     0.029000000
O    -7.272000000    -4.828000000    -4.103000000
H    -8.222000000    -4.741000000    -4.180000000
H    -6.924000000    -4.303000000    -4.823000000
O     0.202000000    -5.196000000    -4.321000000
H     0.432000000    -4.392000000    -3.854000000
H    -0.257000000    -5.728000000    -3.670000000
O    -5.678000000    -5.044000000    -1.348000000
H    -6.541000000    -4.630000000    -1.336000000
H    -5.061000000    -4.313000000    -1.312000000
O    -5.553000000    -4.085000000    -6.607000000
H    -5.106000000    -3.767000000    -5.823000000
H    -4.848000000    -4.408000000    -7.169000000
O     0.313000000    -2.759000000    -2.981000000
H     0.074000000    -2.874000000    -2.062000000
H     0.296000000    -1.812000000    -3.117000000
O    -6.658000000    -0.344000000    -6.137000000
H    -6.906000000    -0.156000000    -7.042000000
H    -5.763000000    -0.677000000    -6.198000000
O    -5.496000000    -7.080000000    -4.542000000
H    -4.596000000    -6.824000000    -4.745000000
H    -6.021000000    -6.314000000    -4.776000000
O    -1.328000000    -3.179000000    -7.574000000
H    -2.196000000    -3.517000000    -7.355000000
H    -1.023000000    -2.763000000    -6.767000000
O    -8.248000000    -2.775000000    -5.939000000
H    -8.670000000    -2.425000000    -6.723000000
H    -7.322000000    -2.559000000    -6.048000000
O    -4.290000000    -4.441000000    -4.148000000
H    -3.780000000    -3.744000000    -3.734000000
H    -4.918000000    -4.709000000    -3.476000000
O    -0.655000000    -7.284000000    -2.618000000
H    -1.381000000    -7.686000000    -3.096000000
H    -1.069000000    -6.611000000    -2.077000000
O    -5.944000000    -1.948000000    -2.624000000
H    -5.995000000    -1.286000000    -3.313000000
H    -5.012000000    -1.998000000    -2.408000000
O    -2.129000000    -5.625000000    -1.264000000
H    -2.455000000    -4.731000000    -1.364000000
H    -2.852000000    -6.098000000    -0.852000000
O    -1.945000000    -2.588000000    -4.853000000
H    -2.561000000    -2.248000000    -4.204000000
H    -1.269000000    -3.025000000    -4.336000000
