215
-1456.56669
C    -2.772000000    -2.939000000     3.464000000
H    -3.241000000    -2.085000000     3.946000000
C    -1.326000000    -3.017000000     3.442000000
C    -0.699000000    -4.076000000     2.785000000
H     0.385000000    -4.145000000     2.748000000
C    -0.573000000    -1.775000000     3.818000000
O    -1.443000000    -0.908000000     4.561000000
H    -0.211000000    -1.179000000     2.967000000
O     0.629000000    -2.149000000     4.520000000
C     1.799000000    -1.429000000     4.162000000
C     2.678000000    -2.028000000     3.222000000
H     2.497000000    -3.076000000     2.996000000
C     3.674000000    -1.273000000     2.638000000
O     4.381000000    -1.782000000     1.641000000
C     3.881000000     0.082000000     3.018000000
C     4.947000000     0.896000000     2.301000000
H     5.237000000     1.597000000     3.086000000
C     4.583000000     1.631000000     1.005000000
C     4.030000000     2.916000000     0.974000000
H     4.022000000     3.470000000     1.909000000
H     5.829000000     0.308000000     2.040000000
C     2.953000000     0.698000000     3.899000000
H     3.069000000     1.713000000     4.270000000
C     1.937000000    -0.050000000     4.486000000
C     0.933000000     0.646000000     5.445000000
H     1.314000000     1.422000000     6.112000000
H     0.477000000    -0.107000000     6.092000000
C    -0.201000000     1.214000000     4.629000000
C    -0.066000000     2.488000000     4.090000000
H     0.870000000     3.037000000     4.151000000
C    -1.308000000     0.439000000     4.302000000
C    -2.316000000     1.004000000     3.519000000
H    -3.105000000     0.364000000     3.133000000
C    -2.307000000     2.324000000     3.143000000
O    -3.305000000     2.720000000     2.273000000
C    -3.026000000     2.655000000     0.908000000
C    -4.245000000     2.214000000     0.149000000
C    -4.425000000     2.586000000    -1.175000000
H    -3.660000000     3.236000000    -1.592000000
C    -4.988000000     1.196000000     0.720000000
H    -4.786000000     0.836000000     1.725000000
O    -2.710000000     4.003000000     0.486000000
H    -2.159000000     2.004000000     0.722000000
C    -1.175000000     3.089000000     3.425000000
C    -1.033000000     4.514000000     3.006000000
H    -0.344000000     5.051000000     3.660000000
H    -2.005000000     5.003000000     3.103000000
C    -0.541000000     4.675000000     1.562000000
C     0.823000000     4.852000000     1.342000000
H     1.522000000     5.022000000     2.158000000
C    -1.378000000     4.432000000     0.463000000
C    -0.822000000     4.500000000    -0.826000000
H    -1.459000000     4.281000000    -1.679000000
C     0.530000000     4.565000000    -1.066000000
O     0.926000000     4.399000000    -2.324000000
C     1.525000000     3.126000000    -2.544000000
C     0.998000000     2.321000000    -3.798000000
C    -0.332000000     2.515000000    -4.244000000
H    -1.016000000     3.176000000    -3.718000000
C     1.845000000     1.612000000    -4.585000000
H     2.918000000     1.563000000    -4.421000000
O     2.981000000     3.225000000    -2.520000000
H     1.315000000     2.583000000    -1.611000000
C     1.375000000     4.704000000     0.035000000
C     2.866000000     4.817000000    -0.104000000
H     3.238000000     5.387000000     0.749000000
H     3.113000000     5.436000000    -0.970000000
C     3.628000000     3.507000000    -0.185000000
C     3.662000000     2.801000000    -1.381000000
C     4.189000000     1.544000000    -1.348000000
H     4.046000000     0.938000000    -2.239000000
C     4.745000000     0.933000000    -0.224000000
O     4.939000000    -0.452000000    -0.257000000
C     3.999000000    -1.379000000     0.301000000
H     2.997000000    -0.925000000     0.306000000
C     4.015000000    -2.676000000    -0.571000000
C     3.841000000    -3.929000000     0.023000000
H     3.760000000    -3.986000000     1.106000000
C     4.058000000    -2.591000000    -1.973000000
H     3.929000000    -1.592000000    -2.383000000
C     3.859000000    -3.711000000    -2.738000000
O     3.836000000    -3.685000000    -4.112000000
C     3.722000000    -4.974000000    -2.083000000
H     3.578000000    -5.915000000    -2.608000000
C     3.731000000    -5.048000000    -0.711000000
O     3.543000000    -6.278000000    -0.090000000
C     2.686000000    -6.502000000     0.910000000
C     1.336000000    -6.095000000     0.798000000
H     1.075000000    -5.451000000    -0.038000000
C     3.057000000    -7.334000000     1.995000000
H     4.105000000    -7.623000000     2.030000000
C     2.182000000    -7.625000000     3.030000000
H     2.420000000    -8.271000000     3.871000000
C     0.868000000    -7.214000000     2.861000000
H     0.162000000    -7.542000000     3.619000000
C     0.418000000    -6.461000000     1.745000000
O    -0.924000000    -6.119000000     1.644000000
C    -1.470000000    -5.076000000     2.286000000
C    -2.848000000    -4.941000000     2.130000000
H    -3.490000000    -5.633000000     1.590000000
C    -3.511000000    -3.937000000     2.835000000
O    -4.840000000    -3.852000000     2.656000000
C    -5.532000000    -2.662000000     2.685000000
C    -5.765000000    -1.896000000     1.547000000
H    -5.419000000    -2.242000000     0.576000000
C    -6.246000000    -2.426000000     3.873000000
H    -6.057000000    -2.964000000     4.798000000
C    -7.214000000    -1.434000000     3.839000000
H    -7.757000000    -1.296000000     4.771000000
C    -7.501000000    -0.643000000     2.692000000
H    -8.357000000     0.025000000     2.639000000
C    -6.726000000    -0.903000000     1.546000000
O    -6.924000000    -0.177000000     0.401000000
C    -6.111000000     0.805000000    -0.015000000
C    -6.365000000     1.309000000    -1.303000000
H    -7.266000000     1.129000000    -1.884000000
C    -5.499000000     2.249000000    -1.879000000
O    -5.772000000     2.784000000    -3.127000000
C    -4.899000000     3.246000000    -3.943000000
C    -3.953000000     2.393000000    -4.600000000
H    -3.940000000     1.315000000    -4.462000000
C    -4.934000000     4.619000000    -4.203000000
H    -5.676000000     5.318000000    -3.825000000
C    -4.039000000     5.238000000    -5.049000000
H    -4.043000000     6.308000000    -5.237000000
C    -3.014000000     4.385000000    -5.577000000
H    -2.258000000     4.763000000    -6.261000000
C    -3.042000000     3.001000000    -5.410000000
O    -2.086000000     2.116000000    -5.980000000
C    -0.784000000     1.977000000    -5.446000000
C     0.099000000     1.190000000    -6.195000000
H    -0.301000000     0.833000000    -7.141000000
C     1.407000000     0.921000000    -5.746000000
O     2.365000000     0.360000000    -6.587000000
C     3.264000000    -0.539000000    -6.052000000
C     4.598000000    -0.259000000    -6.362000000
H     4.822000000     0.665000000    -6.888000000
C     5.621000000    -1.013000000    -5.835000000
H     6.634000000    -0.621000000    -5.799000000
C     5.285000000    -2.168000000    -5.084000000
H     6.046000000    -2.798000000    -4.632000000
C     3.967000000    -2.587000000    -4.925000000
C     2.956000000    -1.732000000    -5.385000000
H     1.930000000    -1.996000000    -5.141000000
C    -0.815000000    -2.261000000    -0.327000000
H    -0.725000000    -3.277000000     0.050000000
C     0.114000000    -1.361000000     0.100000000
H     0.880000000    -1.674000000     0.806000000
C     0.156000000    -0.020000000    -0.370000000
H     0.890000000     0.689000000    -0.055000000
C    -0.876000000     0.402000000    -1.230000000
H    -0.884000000     1.441000000    -1.550000000
C    -1.789000000    -0.481000000    -1.714000000
H    -2.587000000    -0.076000000    -2.332000000
C    -1.801000000    -1.843000000    -1.265000000
C    -2.805000000    -2.825000000    -1.760000000
O    -3.604000000    -2.541000000    -2.648000000
O    -2.615000000    -3.979000000    -1.687000000
O    -7.778000000    -4.595000000     1.288000000
H    -7.151000000    -5.286000000     1.503000000
H    -7.319000000    -3.782000000     1.497000000
O    -6.151000000    -6.563000000     1.242000000
H    -5.621000000    -7.319000000     1.492000000
H    -5.799000000    -6.293000000     0.394000000
O     1.732000000    -5.437000000    -6.086000000
H     1.330000000    -5.051000000    -5.308000000
H     0.993000000    -5.659000000    -6.652000000
O    -5.373000000    -7.930000000    -1.563000000
H    -5.128000000    -7.011000000    -1.666000000
H    -5.630000000    -8.209000000    -2.442000000
O    -8.611000000    -0.781000000    -2.725000000
H    -8.881000000    -0.810000000    -1.807000000
H    -7.677000000    -0.988000000    -2.707000000
O    -6.986000000    -4.072000000    -3.038000000
H    -7.850000000    -4.296000000    -3.383000000
H    -6.815000000    -3.192000000    -3.374000000
O     0.220000000    -4.943000000    -3.762000000
H     0.229000000    -3.998000000    -3.607000000
H    -0.672000000    -5.213000000    -3.542000000
O    -5.105000000    -5.043000000    -1.177000000
H    -5.748000000    -4.674000000    -1.783000000
H    -4.321000000    -4.508000000    -1.304000000
O    -4.428000000    -3.279000000    -6.790000000
H    -4.712000000    -3.953000000    -6.172000000
H    -3.475000000    -3.366000000    -6.817000000
O    -0.105000000    -2.299000000    -3.710000000
H    -0.895000000    -2.074000000    -4.202000000
H    -0.029000000    -1.609000000    -3.051000000
O    -5.466000000    -1.040000000    -5.930000000
H    -5.071000000    -1.871000000    -6.194000000
H    -5.258000000    -0.438000000    -6.644000000
O    -6.971000000    -6.329000000    -4.686000000
H    -6.985000000    -5.727000000    -3.942000000
H    -6.980000000    -5.759000000    -5.455000000
O    -1.520000000    -3.491000000    -6.901000000
H    -1.396000000    -4.367000000    -6.535000000
H    -1.715000000    -2.940000000    -6.142000000
O    -3.715000000    -4.730000000    -4.384000000
H    -3.577000000    -4.314000000    -3.533000000
H    -3.053000000    -5.420000000    -4.424000000
O    -2.312000000    -7.359000000    -4.156000000
H    -2.017000000    -7.174000000    -3.264000000
H    -2.068000000    -8.272000000    -4.304000000
O    -1.192000000    -5.998000000    -6.155000000
H    -1.040000000    -6.663000000    -6.826000000
H    -1.634000000    -6.468000000    -5.448000000
O    -5.972000000    -1.482000000    -3.263000000
H    -5.593000000    -1.333000000    -4.130000000
H    -5.329000000    -2.028000000    -2.812000000
O    -1.790000000    -6.376000000    -1.348000000
H    -2.141000000    -5.486000000    -1.376000000
H    -1.536000000    -6.505000000    -0.435000000
O    -2.451000000    -1.868000000    -5.083000000
H    -2.966000000    -2.271000000    -4.384000000
H    -3.077000000    -1.317000000    -5.554000000
