215
-1447.98418
C     3.115000000     2.106000000    -3.552000000
H     3.594000000     1.292000000    -4.091000000
C     3.057000000     1.925000000    -2.123000000
C     2.510000000     2.983000000    -1.396000000
H     2.534000000     2.877000000    -0.315000000
C     3.730000000     0.693000000    -1.415000000
O     4.375000000    -0.236000000    -2.290000000
H     2.931000000     0.109000000    -0.935000000
O     4.661000000     1.059000000    -0.356000000
C     4.543000000     0.386000000     0.829000000
C     3.917000000     1.065000000     1.829000000
H     3.679000000     2.108000000     1.635000000
C     3.558000000     0.462000000     2.996000000
O     3.011000000     1.333000000     3.964000000
C     3.758000000    -0.844000000     3.227000000
C     3.290000000    -1.478000000     4.515000000
H     3.840000000    -2.401000000     4.709000000
C     1.782000000    -1.806000000     4.462000000
C     1.410000000    -3.047000000     3.913000000
H     2.199000000    -3.778000000     3.759000000
H     3.504000000    -0.827000000     5.365000000
C     4.337000000    -1.598000000     2.187000000
H     4.456000000    -2.671000000     2.311000000
C     4.719000000    -0.990000000     0.967000000
C     5.329000000    -1.815000000    -0.170000000
H     5.925000000    -2.631000000     0.243000000
H     6.046000000    -1.176000000    -0.690000000
C     4.278000000    -2.326000000    -1.231000000
C     3.595000000    -3.530000000    -1.048000000
H     3.749000000    -4.040000000    -0.101000000
C     3.892000000    -1.491000000    -2.266000000
C     2.884000000    -1.852000000    -3.099000000
H     2.419000000    -1.185000000    -3.821000000
C     2.270000000    -3.128000000    -2.965000000
O     1.177000000    -3.403000000    -3.782000000
C    -0.116000000    -3.024000000    -3.230000000
C    -0.891000000    -2.079000000    -4.160000000
C    -2.234000000    -1.798000000    -3.803000000
H    -2.602000000    -2.105000000    -2.827000000
C    -0.328000000    -1.621000000    -5.381000000
H     0.677000000    -1.855000000    -5.725000000
O    -0.882000000    -4.155000000    -2.723000000
H     0.061000000    -2.418000000    -2.329000000
C     2.615000000    -3.989000000    -1.915000000
C     1.761000000    -5.238000000    -1.644000000
H     2.473000000    -5.930000000    -1.190000000
H     1.317000000    -5.774000000    -2.485000000
C     0.518000000    -4.869000000    -0.781000000
C     0.585000000    -4.908000000     0.561000000
H     1.542000000    -5.145000000     1.018000000
C    -0.692000000    -4.369000000    -1.396000000
C    -1.797000000    -4.006000000    -0.582000000
H    -2.724000000    -3.593000000    -0.971000000
C    -1.694000000    -4.128000000     0.790000000
O    -2.711000000    -3.701000000     1.600000000
C    -2.626000000    -2.410000000     2.223000000
C    -3.933000000    -1.644000000     2.087000000
C    -4.702000000    -1.811000000     0.964000000
H    -4.439000000    -2.485000000     0.153000000
C    -4.270000000    -0.716000000     3.030000000
H    -3.559000000    -0.541000000     3.833000000
O    -2.235000000    -2.611000000     3.684000000
H    -1.821000000    -1.816000000     1.767000000
C    -0.490000000    -4.621000000     1.403000000
C    -0.247000000    -4.685000000     2.903000000
H     0.458000000    -5.489000000     3.125000000
H    -1.150000000    -5.080000000     3.374000000
C     0.071000000    -3.358000000     3.621000000
C    -0.955000000    -2.442000000     3.923000000
C    -0.539000000    -1.205000000     4.416000000
H    -1.323000000    -0.467000000     4.562000000
C     0.776000000    -0.865000000     4.682000000
O     1.004000000     0.494000000     4.966000000
C     1.555000000     1.375000000     3.960000000
H     1.208000000     0.985000000     2.992000000
C     0.937000000     2.720000000     4.235000000
C     1.496000000     3.966000000     3.817000000
H     2.466000000     4.022000000     3.331000000
C    -0.385000000     2.726000000     4.612000000
H    -0.971000000     1.813000000     4.686000000
C    -1.128000000     3.920000000     4.694000000
O    -2.391000000     4.115000000     5.184000000
C    -0.539000000     5.079000000     4.325000000
H    -1.030000000     6.043000000     4.429000000
C     0.713000000     5.163000000     3.811000000
O     1.209000000     6.292000000     3.326000000
C     1.960000000     6.349000000     2.174000000
C     1.443000000     5.773000000     1.037000000
H     0.463000000     5.318000000     0.922000000
C     3.191000000     6.993000000     2.207000000
H     3.453000000     7.530000000     3.115000000
C     3.943000000     7.054000000     1.035000000
H     4.868000000     7.621000000     1.095000000
C     3.487000000     6.339000000    -0.109000000
H     3.909000000     6.512000000    -1.095000000
C     2.233000000     5.818000000    -0.117000000
O     1.622000000     5.309000000    -1.329000000
C     2.133000000     4.206000000    -2.030000000
C     2.107000000     4.252000000    -3.454000000
H     1.737000000     5.093000000    -4.035000000
C     2.598000000     3.175000000    -4.215000000
O     2.712000000     3.245000000    -5.620000000
C     2.332000000     2.298000000    -6.491000000
C     1.114000000     1.573000000    -6.302000000
H     0.598000000     1.647000000    -5.348000000
C     3.052000000     2.040000000    -7.663000000
H     3.919000000     2.656000000    -7.889000000
C     2.701000000     1.045000000    -8.603000000
H     3.378000000     0.742000000    -9.397000000
C     1.459000000     0.430000000    -8.396000000
H     1.098000000    -0.298000000    -9.118000000
C     0.675000000     0.689000000    -7.299000000
O    -0.523000000    -0.040000000    -7.149000000
C    -1.042000000    -0.600000000    -6.013000000
C    -2.380000000    -0.369000000    -5.797000000
H    -2.968000000     0.230000000    -6.488000000
C    -3.015000000    -0.960000000    -4.645000000
O    -4.255000000    -0.563000000    -4.358000000
C    -5.021000000    -1.453000000    -3.579000000
C    -5.434000000    -1.007000000    -2.312000000
H    -5.091000000    -0.021000000    -2.007000000
C    -5.605000000    -2.604000000    -4.100000000
H    -5.188000000    -3.042000000    -5.003000000
C    -6.460000000    -3.368000000    -3.334000000
H    -6.970000000    -4.185000000    -3.837000000
C    -6.835000000    -2.962000000    -2.049000000
H    -7.490000000    -3.601000000    -1.462000000
C    -6.278000000    -1.756000000    -1.516000000
O    -6.657000000    -1.223000000    -0.351000000
C    -5.858000000    -1.077000000     0.785000000
C    -6.239000000    -0.158000000     1.726000000
H    -7.146000000     0.406000000     1.525000000
C    -5.465000000     0.053000000     2.880000000
O    -5.760000000     1.227000000     3.566000000
C    -5.000000000     1.629000000     4.557000000
C    -5.061000000     1.025000000     5.802000000
H    -5.743000000     0.188000000     5.927000000
C    -4.431000000     1.553000000     6.881000000
H    -4.515000000     1.037000000     7.834000000
C    -3.521000000     2.586000000     6.689000000
H    -2.951000000     2.994000000     7.520000000
C    -3.274000000     3.073000000     5.368000000
C    -4.093000000     2.604000000     4.297000000
H    -4.056000000     3.053000000     3.307000000
C    -2.243000000     0.816000000    -0.697000000
H    -3.272000000     0.750000000    -1.040000000
C    -1.376000000    -0.315000000    -0.639000000
H    -1.715000000    -1.267000000    -1.039000000
C    -0.038000000    -0.189000000    -0.236000000
H     0.536000000    -1.114000000    -0.239000000
C     0.376000000     0.992000000     0.346000000
H     1.364000000     1.275000000     0.701000000
C    -0.477000000     2.112000000     0.238000000
H    -0.085000000     3.079000000     0.544000000
C    -1.787000000     2.051000000    -0.243000000
C    -2.720000000     3.292000000    -0.237000000
O    -2.303000000     4.444000000    -0.143000000
O    -3.877000000     3.207000000    -0.623000000
O    -4.360000000     6.205000000     4.341000000
H    -4.489000000     5.723000000     3.524000000
H    -3.627000000     5.762000000     4.768000000
O    -0.953000000     5.754000000    -2.201000000
H    -1.406000000     5.411000000    -1.430000000
H    -0.024000000     5.684000000    -1.984000000
O    -6.907000000     1.498000000    -3.791000000
H    -6.021000000     1.726000000    -3.509000000
H    -6.848000000     1.443000000    -4.745000000
O    -2.036000000     8.114000000    -3.348000000
H    -2.057000000     7.187000000    -3.108000000
H    -1.109000000     8.304000000    -3.489000000
O    -4.677000000     2.437000000    -2.961000000
H    -3.900000000     2.680000000    -3.465000000
H    -4.459000000     2.670000000    -2.059000000
O    -6.099000000     3.905000000     0.056000000
H    -6.677000000     3.597000000    -0.643000000
H    -5.264000000     3.470000000    -0.115000000
O    -6.566000000     5.077000000    -3.898000000
H    -5.852000000     4.648000000    -4.369000000
H    -6.598000000     5.960000000    -4.266000000
O    -7.537000000     3.300000000    -2.059000000
H    -7.273000000     2.448000000    -2.409000000
H    -7.364000000     3.915000000    -2.771000000
O    -2.217000000     2.252000000    -4.250000000
H    -1.626000000     2.934000000    -4.567000000
H    -1.650000000     1.645000000    -3.775000000
O    -6.469000000     7.228000000    -1.120000000
H    -5.749000000     6.815000000    -1.595000000
H    -6.607000000     6.666000000    -0.357000000
O    -2.987000000     9.565000000     2.062000000
H    -2.051000000     9.699000000     1.913000000
H    -3.217000000     8.831000000     1.492000000
O    -4.372000000     5.067000000     1.873000000
H    -3.945000000     5.154000000     1.020000000
H    -5.200000000     4.625000000     1.681000000
O    -0.690000000     4.516000000    -4.836000000
H    -0.587000000     5.347000000    -5.300000000
H    -0.724000000     4.761000000    -3.912000000
O    -4.139000000     5.983000000    -1.382000000
H    -3.328000000     5.526000000    -1.159000000
H    -4.695000000     5.308000000    -1.772000000
O    -5.154000000     3.522000000    -5.828000000
H    -4.831000000     2.864000000    -5.212000000
H    -4.363000000     3.898000000    -6.214000000
O    -2.218000000     7.075000000     0.420000000
H    -2.076000000     6.147000000     0.607000000
H    -2.545000000     7.091000000    -0.480000000
O    -7.829000000     5.787000000     1.219000000
H    -8.119000000     5.404000000     2.047000000
H    -7.358000000     5.079000000     0.779000000
O    -0.030000000     1.201000000    -2.943000000
H    -0.248000000     0.925000000    -2.053000000
H     0.863000000     1.538000000    -2.878000000
O    -7.900000000     3.424000000     3.573000000
H    -7.518000000     4.026000000     4.211000000
H    -7.339000000     2.649000000     3.609000000
