215
-1437.62779
C    -2.989000000    -2.720000000     3.213000000
H    -3.559000000    -1.794000000     3.208000000
C    -1.644000000    -2.768000000     3.584000000
C    -0.989000000    -3.980000000     3.378000000
H     0.094000000    -3.923000000     3.459000000
C    -0.966000000    -1.455000000     4.021000000
O    -1.746000000    -0.622000000     4.858000000
H    -0.731000000    -0.885000000     3.111000000
O     0.249000000    -1.761000000     4.734000000
C     1.418000000    -1.079000000     4.413000000
C     2.294000000    -1.727000000     3.534000000
H     2.226000000    -2.753000000     3.181000000
C     3.404000000    -1.084000000     3.018000000
O     4.194000000    -1.690000000     2.072000000
C     3.611000000     0.243000000     3.258000000
C     4.747000000     1.071000000     2.648000000
H     5.074000000     1.979000000     3.158000000
C     4.423000000     1.582000000     1.221000000
C     3.806000000     2.884000000     1.159000000
H     3.703000000     3.527000000     2.030000000
H     5.638000000     0.439000000     2.612000000
C     2.736000000     0.925000000     4.126000000
H     2.821000000     1.978000000     4.383000000
C     1.641000000     0.262000000     4.687000000
C     0.547000000     0.972000000     5.516000000
H     0.944000000     1.758000000     6.161000000
H     0.212000000     0.159000000     6.163000000
C    -0.595000000     1.435000000     4.620000000
C    -0.446000000     2.740000000     4.061000000
H     0.401000000     3.333000000     4.397000000
C    -1.745000000     0.682000000     4.362000000
C    -2.756000000     1.220000000     3.476000000
H    -3.613000000     0.602000000     3.221000000
C    -2.560000000     2.478000000     2.852000000
O    -3.528000000     2.795000000     1.964000000
C    -3.167000000     2.870000000     0.614000000
C    -4.338000000     2.380000000    -0.181000000
C    -4.551000000     2.893000000    -1.446000000
H    -3.775000000     3.578000000    -1.778000000
C    -5.235000000     1.339000000     0.270000000
H    -5.038000000     0.844000000     1.218000000
O    -2.764000000     4.231000000     0.264000000
H    -2.376000000     2.149000000     0.358000000
C    -1.438000000     3.284000000     3.217000000
C    -1.233000000     4.710000000     2.598000000
H    -0.592000000     5.300000000     3.256000000
H    -2.207000000     5.199000000     2.529000000
C    -0.575000000     4.695000000     1.286000000
C     0.795000000     4.814000000     1.162000000
H     1.375000000     4.940000000     2.073000000
C    -1.380000000     4.571000000     0.151000000
C    -0.789000000     4.470000000    -1.122000000
H    -1.379000000     4.270000000    -2.012000000
C     0.596000000     4.574000000    -1.248000000
O     1.168000000     4.273000000    -2.475000000
C     1.671000000     2.893000000    -2.665000000
C     1.370000000     2.327000000    -4.028000000
C     0.013000000     2.378000000    -4.404000000
H    -0.758000000     2.850000000    -3.801000000
C     2.249000000     1.371000000    -4.653000000
H     3.180000000     1.136000000    -4.144000000
O     3.124000000     2.935000000    -2.480000000
H     1.069000000     2.279000000    -1.978000000
C     1.383000000     4.780000000    -0.112000000
C     2.877000000     4.761000000    -0.286000000
H     3.306000000     5.328000000     0.544000000
H     3.162000000     5.276000000    -1.206000000
C     3.489000000     3.386000000    -0.107000000
C     3.580000000     2.575000000    -1.274000000
C     4.224000000     1.377000000    -1.228000000
H     4.404000000     0.758000000    -2.103000000
C     4.565000000     0.834000000     0.064000000
O     4.987000000    -0.452000000     0.196000000
C     3.987000000    -1.421000000     0.622000000
H     2.994000000    -0.963000000     0.504000000
C     4.058000000    -2.732000000    -0.180000000
C     3.875000000    -4.030000000     0.383000000
H     3.644000000    -4.054000000     1.445000000
C     3.966000000    -2.725000000    -1.567000000
H     4.056000000    -1.779000000    -2.094000000
C     4.016000000    -3.903000000    -2.332000000
O     3.994000000    -3.887000000    -3.682000000
C     3.800000000    -5.148000000    -1.715000000
H     3.682000000    -6.008000000    -2.368000000
C     3.615000000    -5.185000000    -0.340000000
O     3.432000000    -6.427000000     0.261000000
C     2.636000000    -6.508000000     1.405000000
C     1.276000000    -6.190000000     1.320000000
H     0.888000000    -6.016000000     0.320000000
C     3.191000000    -6.875000000     2.592000000
H     4.235000000    -7.178000000     2.599000000
C     2.421000000    -6.959000000     3.744000000
H     2.795000000    -7.370000000     4.678000000
C     1.016000000    -6.750000000     3.647000000
H     0.404000000    -6.929000000     4.527000000
C     0.486000000    -6.235000000     2.489000000
O    -0.885000000    -6.060000000     2.323000000
C    -1.664000000    -5.049000000     2.852000000
C    -2.978000000    -4.977000000     2.543000000
H    -3.308000000    -5.947000000     2.178000000
C    -3.693000000    -3.838000000     2.728000000
O    -5.035000000    -3.843000000     2.497000000
C    -5.831000000    -2.695000000     2.359000000
C    -6.119000000    -2.160000000     1.132000000
H    -5.634000000    -2.632000000     0.282000000
C    -6.272000000    -2.030000000     3.447000000
H    -6.030000000    -2.448000000     4.422000000
C    -6.933000000    -0.839000000     3.312000000
H    -7.244000000    -0.233000000     4.159000000
C    -7.141000000    -0.289000000     2.047000000
H    -7.488000000     0.732000000     1.906000000
C    -6.733000000    -0.962000000     0.951000000
O    -6.907000000    -0.366000000    -0.283000000
C    -6.222000000     0.828000000    -0.579000000
C    -6.220000000     1.318000000    -1.890000000
H    -6.937000000     0.884000000    -2.583000000
C    -5.485000000     2.401000000    -2.296000000
O    -5.636000000     2.912000000    -3.538000000
C    -4.585000000     3.223000000    -4.367000000
C    -3.559000000     2.290000000    -4.546000000
H    -3.387000000     1.511000000    -3.807000000
C    -4.704000000     4.334000000    -5.236000000
H    -5.634000000     4.894000000    -5.196000000
C    -3.782000000     4.384000000    -6.351000000
H    -4.056000000     5.082000000    -7.138000000
C    -2.784000000     3.462000000    -6.468000000
H    -2.076000000     3.677000000    -7.264000000
C    -2.723000000     2.400000000    -5.625000000
O    -1.730000000     1.493000000    -5.910000000
C    -0.417000000     1.663000000    -5.519000000
C     0.543000000     0.875000000    -6.224000000
H     0.156000000     0.244000000    -7.020000000
C     1.860000000     0.683000000    -5.826000000
O     2.641000000    -0.280000000    -6.391000000
C     3.672000000    -1.000000000    -5.791000000
C     4.976000000    -0.546000000    -5.896000000
H     5.188000000     0.385000000    -6.414000000
C     5.950000000    -1.314000000    -5.348000000
H     6.991000000    -1.114000000    -5.590000000
C     5.652000000    -2.502000000    -4.644000000
H     6.430000000    -3.201000000    -4.349000000
C     4.337000000    -2.817000000    -4.446000000
C     3.356000000    -2.029000000    -4.990000000
H     2.301000000    -2.228000000    -4.818000000
C    -1.571000000    -2.296000000    -0.514000000
H    -1.705000000    -3.314000000    -0.158000000
C    -0.408000000    -1.564000000    -0.195000000
H     0.282000000    -2.077000000     0.470000000
C    -0.319000000    -0.236000000    -0.569000000
H     0.485000000     0.407000000    -0.406000000
C    -1.292000000     0.248000000    -1.424000000
H    -1.167000000     1.254000000    -1.817000000
C    -2.443000000    -0.541000000    -1.750000000
H    -3.253000000    -0.171000000    -2.375000000
C    -2.557000000    -1.818000000    -1.322000000
C    -3.735000000    -2.714000000    -1.701000000
O    -4.626000000    -2.283000000    -2.445000000
O    -3.715000000    -3.876000000    -1.415000000
O     0.866000000    -6.607000000    -2.259000000
H     1.329000000    -5.778000000    -2.376000000
H     1.496000000    -7.171000000    -1.811000000
O    -2.379000000    -5.063000000    -3.384000000
H    -2.722000000    -4.500000000    -4.078000000
H    -2.649000000    -4.634000000    -2.572000000
O    -3.410000000    -4.133000000    -5.781000000
H    -3.848000000    -4.826000000    -6.274000000
H    -3.546000000    -3.343000000    -6.305000000
O    -4.595000000    -5.921000000    -0.025000000
H    -4.260000000    -5.180000000    -0.529000000
H    -5.063000000    -5.521000000     0.708000000
O    -8.212000000    -1.038000000    -5.570000000
H    -8.858000000    -0.427000000    -5.215000000
H    -7.876000000    -0.602000000    -6.353000000
O    -2.016000000    -1.261000000    -4.817000000
H    -2.962000000    -1.403000000    -4.849000000
H    -1.822000000    -0.764000000    -5.613000000
O   -10.064000000    -2.887000000    -2.729000000
H    -9.335000000    -2.273000000    -2.633000000
H    -9.729000000    -3.566000000    -3.315000000
O    -2.363000000    -7.862000000    -1.529000000
H    -1.406000000    -7.888000000    -1.532000000
H    -2.577000000    -6.931000000    -1.596000000
O    -5.314000000    -1.836000000    -7.643000000
H    -5.265000000    -1.610000000    -6.714000000
H    -4.542000000    -1.423000000    -8.030000000
O     0.105000000    -1.971000000    -3.349000000
H    -0.286000000    -1.562000000    -2.577000000
H    -0.502000000    -1.768000000    -4.061000000
O    -8.344000000    -4.867000000     0.209000000
H    -9.230000000    -4.546000000     0.043000000
H    -8.040000000    -5.182000000    -0.642000000
O    -5.177000000    -8.430000000    -0.700000000
H    -5.845000000    -7.944000000    -1.184000000
H    -4.578000000    -7.756000000    -0.379000000
O    -1.363000000    -7.438000000    -4.993000000
H    -0.490000000    -7.226000000    -4.663000000
H    -1.882000000    -6.653000000    -4.817000000
O    -4.767000000    -0.788000000    -4.869000000
H    -5.414000000    -0.089000000    -4.771000000
H    -4.803000000    -1.266000000    -4.041000000
O    -5.369000000    -7.504000000    -3.484000000
H    -4.743000000    -7.863000000    -2.856000000
H    -5.199000000    -6.562000000    -3.481000000
O    -8.274000000    -4.724000000    -4.103000000
H    -7.583000000    -5.216000000    -3.660000000
H    -7.991000000    -3.811000000    -4.049000000
O    -7.332000000    -2.197000000    -3.057000000
H    -7.228000000    -1.689000000    -3.862000000
H    -6.471000000    -2.164000000    -2.640000000
O    -5.952000000    -4.994000000    -2.596000000
H    -5.581000000    -4.135000000    -2.801000000
H    -5.836000000    -5.086000000    -1.651000000
O     0.516000000    -4.542000000    -4.187000000
H     0.574000000    -3.623000000    -3.925000000
H    -0.240000000    -4.881000000    -3.707000000
