215
-1452.66525
C     3.852000000     1.965000000    -3.629000000
H     4.087000000     1.006000000    -4.082000000
C     3.921000000     2.041000000    -2.254000000
C     3.616000000     3.314000000    -1.687000000
H     3.632000000     3.508000000    -0.617000000
C     4.156000000     0.843000000    -1.400000000
O     4.627000000    -0.280000000    -2.107000000
H     3.140000000     0.694000000    -1.005000000
O     4.954000000     1.111000000    -0.266000000
C     4.557000000     0.469000000     0.942000000
C     3.817000000     1.270000000     1.834000000
H     3.749000000     2.323000000     1.572000000
C     3.218000000     0.779000000     3.018000000
O     2.493000000     1.622000000     3.825000000
C     3.469000000    -0.532000000     3.344000000
C     2.924000000    -1.244000000     4.645000000
H     3.565000000    -2.077000000     4.941000000
C     1.521000000    -1.643000000     4.447000000
C     1.179000000    -2.945000000     4.097000000
H     1.963000000    -3.682000000     3.942000000
H     3.019000000    -0.581000000     5.508000000
C     4.261000000    -1.382000000     2.480000000
H     4.411000000    -2.409000000     2.805000000
C     4.655000000    -0.916000000     1.236000000
C     5.302000000    -1.784000000     0.232000000
H     5.813000000    -2.673000000     0.608000000
H     6.091000000    -1.205000000    -0.252000000
C     4.335000000    -2.211000000    -0.819000000
C     3.551000000    -3.390000000    -0.687000000
H     3.698000000    -3.996000000     0.204000000
C     3.962000000    -1.403000000    -1.883000000
C     2.865000000    -1.691000000    -2.709000000
H     2.620000000    -0.903000000    -3.416000000
C     2.170000000    -2.821000000    -2.542000000
O     1.169000000    -3.043000000    -3.424000000
C    -0.142000000    -2.811000000    -2.937000000
C    -0.873000000    -2.060000000    -4.068000000
C    -2.277000000    -2.106000000    -4.054000000
H    -2.795000000    -2.730000000    -3.330000000
C    -0.314000000    -1.326000000    -5.037000000
H     0.771000000    -1.397000000    -5.020000000
O    -0.759000000    -3.998000000    -2.432000000
H    -0.090000000    -2.123000000    -2.081000000
C     2.532000000    -3.708000000    -1.547000000
C     1.782000000    -4.980000000    -1.277000000
H     2.447000000    -5.641000000    -0.718000000
H     1.685000000    -5.530000000    -2.215000000
C     0.516000000    -4.743000000    -0.508000000
C     0.603000000    -4.871000000     0.873000000
H     1.498000000    -5.254000000     1.358000000
C    -0.671000000    -4.262000000    -1.141000000
C    -1.793000000    -4.009000000    -0.374000000
H    -2.688000000    -3.598000000    -0.833000000
C    -1.734000000    -4.151000000     1.044000000
O    -2.849000000    -3.711000000     1.681000000
C    -2.751000000    -2.347000000     2.256000000
C    -4.051000000    -1.483000000     2.028000000
C    -4.607000000    -1.452000000     0.748000000
H    -4.086000000    -2.075000000     0.025000000
C    -4.595000000    -0.656000000     3.017000000
H    -4.116000000    -0.556000000     3.988000000
O    -2.430000000    -2.555000000     3.598000000
H    -1.923000000    -1.844000000     1.735000000
C    -0.526000000    -4.571000000     1.674000000
C    -0.405000000    -4.609000000     3.258000000
H     0.367000000    -5.332000000     3.531000000
H    -1.377000000    -5.007000000     3.558000000
C    -0.142000000    -3.321000000     3.851000000
C    -1.139000000    -2.356000000     4.039000000
C    -0.844000000    -1.084000000     4.541000000
H    -1.612000000    -0.325000000     4.667000000
C     0.476000000    -0.743000000     4.683000000
O     0.707000000     0.591000000     5.007000000
C     1.066000000     1.405000000     3.922000000
H     0.721000000     0.955000000     2.980000000
C     0.377000000     2.776000000     3.951000000
C     0.845000000     3.828000000     3.093000000
H     1.784000000     3.694000000     2.562000000
C    -0.886000000     2.929000000     4.518000000
H    -1.305000000     2.174000000     5.179000000
C    -1.666000000     4.009000000     4.182000000
O    -2.918000000     4.169000000     4.714000000
C    -1.146000000     5.055000000     3.401000000
H    -1.768000000     5.889000000     3.090000000
C     0.068000000     4.909000000     2.780000000
O     0.449000000     5.765000000     1.765000000
C     1.692000000     5.948000000     1.261000000
C     1.863000000     5.696000000    -0.114000000
H     0.996000000     5.441000000    -0.718000000
C     2.799000000     6.288000000     2.045000000
H     2.599000000     6.296000000     3.113000000
C     4.081000000     6.420000000     1.528000000
H     4.975000000     6.453000000     2.147000000
C     4.186000000     6.306000000     0.090000000
H     5.103000000     6.424000000    -0.483000000
C     3.083000000     5.922000000    -0.686000000
O     3.191000000     5.624000000    -2.024000000
C     3.371000000     4.397000000    -2.564000000
C     3.343000000     4.303000000    -3.929000000
H     3.262000000     5.158000000    -4.595000000
C     3.539000000     3.007000000    -4.447000000
O     3.588000000     2.891000000    -5.822000000
C     2.871000000     1.886000000    -6.448000000
C     1.515000000     1.551000000    -6.181000000
H     0.886000000     2.176000000    -5.552000000
C     3.568000000     1.239000000    -7.432000000
H     4.575000000     1.630000000    -7.554000000
C     3.049000000     0.163000000    -8.172000000
H     3.477000000    -0.194000000    -9.106000000
C     1.741000000    -0.205000000    -7.881000000
H     1.223000000    -0.919000000    -8.516000000
C     1.040000000     0.482000000    -6.910000000
O    -0.312000000     0.242000000    -6.766000000
C    -1.008000000    -0.582000000    -5.926000000
C    -2.399000000    -0.512000000    -5.853000000
H    -2.917000000     0.127000000    -6.564000000
C    -3.043000000    -1.239000000    -4.902000000
O    -4.397000000    -1.151000000    -4.939000000
C    -5.124000000    -1.680000000    -3.902000000
C    -5.361000000    -0.964000000    -2.708000000
H    -5.104000000     0.092000000    -2.723000000
C    -5.652000000    -2.991000000    -4.068000000
H    -5.636000000    -3.476000000    -5.040000000
C    -6.410000000    -3.574000000    -3.054000000
H    -6.888000000    -4.539000000    -3.200000000
C    -6.693000000    -2.838000000    -1.883000000
H    -7.382000000    -3.259000000    -1.156000000
C    -6.137000000    -1.541000000    -1.760000000
O    -6.524000000    -0.785000000    -0.668000000
C    -5.841000000    -0.797000000     0.506000000
C    -6.445000000    -0.140000000     1.582000000
H    -7.331000000     0.411000000     1.278000000
C    -5.817000000    -0.001000000     2.821000000
O    -6.395000000     0.814000000     3.767000000
C    -5.558000000     1.516000000     4.575000000
C    -5.551000000     1.199000000     5.972000000
H    -6.213000000     0.401000000     6.299000000
C    -4.651000000     1.825000000     6.886000000
H    -4.533000000     1.402000000     7.880000000
C    -3.773000000     2.813000000     6.428000000
H    -3.163000000     3.340000000     7.156000000
C    -3.793000000     3.181000000     5.055000000
C    -4.662000000     2.544000000     4.150000000
H    -4.694000000     2.862000000     3.111000000
C    -2.250000000     1.355000000    -1.300000000
H    -3.143000000     1.189000000    -1.896000000
C    -1.388000000     0.236000000    -1.099000000
H    -1.737000000    -0.742000000    -1.424000000
C    -0.134000000     0.388000000    -0.458000000
H     0.573000000    -0.387000000    -0.336000000
C     0.226000000     1.644000000     0.055000000
H     1.188000000     1.682000000     0.561000000
C    -0.653000000     2.697000000    -0.063000000
H    -0.315000000     3.660000000     0.310000000
C    -1.899000000     2.632000000    -0.816000000
C    -2.802000000     3.756000000    -1.048000000
O    -2.514000000     4.888000000    -0.727000000
O    -3.882000000     3.534000000    -1.608000000
O    -3.997000000     6.811000000     3.491000000
H    -4.056000000     6.221000000     2.739000000
H    -4.337000000     6.298000000     4.225000000
O    -0.379000000     9.017000000     1.724000000
H     0.475000000     9.074000000     1.297000000
H    -0.834000000     8.314000000     1.258000000
O    -0.915000000     6.330000000    -2.307000000
H    -1.299000000     5.714000000    -1.683000000
H    -0.964000000     5.880000000    -3.150000000
O    -3.953000000     8.194000000    -1.719000000
H    -3.935000000     7.428000000    -2.292000000
H    -3.082000000     8.218000000    -1.323000000
O    -4.272000000     2.620000000    -4.596000000
H    -3.518000000     2.876000000    -5.127000000
H    -3.982000000     2.747000000    -3.693000000
O    -6.161000000     3.360000000    -0.233000000
H    -6.777000000     2.735000000    -0.615000000
H    -5.379000000     3.292000000    -0.782000000
O    -6.906000000     3.561000000    -3.767000000
H    -6.646000000     2.705000000    -4.108000000
H    -7.657000000     3.814000000    -4.303000000
O    -8.094000000     2.142000000    -1.780000000
H    -7.902000000     1.209000000    -1.870000000
H    -7.771000000     2.533000000    -2.592000000
O    -0.937000000     5.027000000    -4.521000000
H    -0.805000000     5.564000000    -5.303000000
H    -0.315000000     4.307000000    -4.618000000
O     0.034000000     8.701000000    -3.395000000
H    -0.378000000     7.944000000    -2.978000000
H    -0.544000000     8.917000000    -4.126000000
O    -6.044000000     8.010000000     0.073000000
H    -5.264000000     7.862000000    -0.463000000
H    -6.322000000     7.134000000     0.338000000
O    -4.490000000     5.596000000     0.872000000
H    -3.729000000     5.284000000     0.384000000
H    -5.233000000     5.143000000     0.474000000
O    -6.315000000     8.094000000    -3.592000000
H    -6.033000000     7.181000000    -3.630000000
H    -5.505000000     8.591000000    -3.479000000
O    -5.380000000     5.567000000    -2.782000000
H    -4.737000000     5.174000000    -2.192000000
H    -5.856000000     4.822000000    -3.149000000
O    -3.959000000     5.009000000    -6.210000000
H    -4.460000000     4.489000000    -5.582000000
H    -3.285000000     4.411000000    -6.534000000
O    -1.795000000     7.519000000    -0.129000000
H    -1.260000000     7.367000000    -0.908000000
H    -2.160000000     6.660000000     0.082000000
O    -2.297000000     2.946000000    -6.989000000
H    -1.412000000     3.310000000    -7.005000000
H    -2.266000000     2.215000000    -7.607000000
O    -7.535000000     5.650000000     0.276000000
H    -8.200000000     5.805000000    -0.395000000
H    -7.203000000     4.773000000     0.087000000
O     0.581000000     2.535000000    -3.121000000
H    -0.187000000     2.098000000    -2.752000000
H     1.025000000     2.918000000    -2.365000000
