215
-1457.86616
C    -3.554000000    -2.126000000     2.793000000
H    -3.994000000    -1.319000000     2.212000000
C    -2.547000000    -1.794000000     3.756000000
C    -1.901000000    -2.879000000     4.351000000
H    -1.032000000    -2.659000000     4.966000000
C    -2.069000000    -0.358000000     3.823000000
O    -3.218000000     0.564000000     3.873000000
H    -1.525000000    -0.205000000     2.879000000
O    -1.152000000    -0.248000000     4.921000000
C    -0.012000000     0.433000000     4.741000000
C     1.120000000    -0.315000000     4.510000000
H     1.081000000    -1.401000000     4.530000000
C     2.313000000     0.353000000     4.259000000
O     3.354000000    -0.474000000     3.925000000
C     2.340000000     1.777000000     4.097000000
C     3.568000000     2.471000000     3.704000000
H     3.646000000     3.504000000     4.048000000
C     3.592000000     2.593000000     2.174000000
C     3.022000000     3.705000000     1.557000000
H     2.559000000     4.574000000     2.018000000
H     4.492000000     2.008000000     4.057000000
C     1.150000000     2.483000000     4.283000000
H     1.147000000     3.540000000     4.030000000
C    -0.026000000     1.828000000     4.632000000
C    -1.309000000     2.613000000     4.706000000
H    -1.112000000     3.614000000     5.095000000
H    -1.838000000     1.955000000     5.398000000
C    -2.171000000     2.697000000     3.413000000
C    -1.990000000     3.815000000     2.573000000
H    -1.146000000     4.470000000     2.771000000
C    -3.079000000     1.675000000     3.106000000
C    -3.808000000     1.801000000     1.965000000
H    -4.538000000     1.016000000     1.785000000
C    -3.690000000     2.924000000     1.123000000
O    -4.192000000     2.802000000    -0.197000000
C    -3.384000000     2.584000000    -1.343000000
C    -3.977000000     1.584000000    -2.319000000
C    -3.698000000     1.636000000    -3.685000000
H    -3.107000000     2.417000000    -4.155000000
C    -4.826000000     0.536000000    -1.833000000
H    -5.076000000     0.497000000    -0.775000000
O    -2.978000000     3.768000000    -1.968000000
H    -2.549000000     2.037000000    -0.882000000
C    -2.741000000     3.936000000     1.442000000
C    -2.532000000     5.154000000     0.519000000
H    -2.203000000     6.026000000     1.089000000
H    -3.431000000     5.458000000    -0.020000000
C    -1.427000000     4.833000000    -0.506000000
C    -0.091000000     5.006000000    -0.198000000
H     0.235000000     5.504000000     0.712000000
C    -1.653000000     4.114000000    -1.665000000
C    -0.670000000     3.673000000    -2.474000000
H    -0.888000000     2.993000000    -3.294000000
C     0.647000000     4.054000000    -2.228000000
O     1.652000000     3.617000000    -3.032000000
C     2.264000000     2.367000000    -2.601000000
C     2.383000000     1.419000000    -3.772000000
C     1.392000000     1.254000000    -4.758000000
H     0.583000000     1.978000000    -4.699000000
C     3.519000000     0.638000000    -3.798000000
H     4.141000000     0.660000000    -2.907000000
O     3.577000000     2.715000000    -1.881000000
H     1.550000000     1.861000000    -1.935000000
C     0.980000000     4.688000000    -1.044000000
C     2.435000000     5.055000000    -0.623000000
H     2.436000000     5.926000000     0.037000000
H     3.026000000     5.314000000    -1.504000000
C     2.986000000     3.800000000     0.141000000
C     3.585000000     2.758000000    -0.563000000
C     4.130000000     1.631000000     0.076000000
H     4.406000000     0.783000000    -0.546000000
C     4.046000000     1.520000000     1.443000000
O     4.566000000     0.389000000     2.038000000
C     3.612000000    -0.596000000     2.519000000
H     2.722000000    -0.399000000     1.902000000
C     3.899000000    -2.012000000     2.099000000
C     3.503000000    -3.150000000     2.859000000
H     3.210000000    -3.008000000     3.896000000
C     4.287000000    -2.311000000     0.814000000
H     4.629000000    -1.525000000     0.145000000
C     4.210000000    -3.593000000     0.297000000
O     4.571000000    -3.845000000    -1.052000000
C     3.734000000    -4.664000000     1.011000000
H     3.787000000    -5.686000000     0.644000000
C     3.438000000    -4.432000000     2.315000000
O     3.088000000    -5.534000000     3.094000000
C     2.172000000    -5.438000000     4.163000000
C     0.827000000    -5.227000000     3.882000000
H     0.497000000    -5.170000000     2.847000000
C     2.610000000    -5.713000000     5.447000000
H     3.684000000    -5.776000000     5.598000000
C     1.676000000    -5.760000000     6.542000000
H     2.028000000    -5.842000000     7.567000000
C     0.285000000    -5.556000000     6.248000000
H    -0.405000000    -5.515000000     7.087000000
C    -0.148000000    -5.314000000     4.892000000
O    -1.520000000    -5.256000000     4.594000000
C    -2.213000000    -4.177000000     4.069000000
C    -3.204000000    -4.448000000     3.094000000
H    -3.343000000    -5.457000000     2.715000000
C    -3.879000000    -3.465000000     2.465000000
O    -4.531000000    -3.730000000     1.288000000
C    -5.584000000    -3.074000000     0.703000000
C    -5.442000000    -2.545000000    -0.601000000
H    -4.469000000    -2.575000000    -1.085000000
C    -6.804000000    -2.932000000     1.380000000
H    -6.960000000    -3.597000000     2.226000000
C    -7.889000000    -2.314000000     0.783000000
H    -8.861000000    -2.316000000     1.269000000
C    -7.739000000    -1.745000000    -0.459000000
H    -8.496000000    -1.089000000    -0.882000000
C    -6.534000000    -1.829000000    -1.142000000
O    -6.379000000    -1.286000000    -2.378000000
C    -5.361000000    -0.380000000    -2.777000000
C    -5.000000000    -0.353000000    -4.134000000
H    -5.503000000    -1.003000000    -4.846000000
C    -4.136000000     0.680000000    -4.622000000
O    -4.039000000     0.838000000    -6.019000000
C    -2.852000000     1.155000000    -6.638000000
C    -1.627000000     0.587000000    -6.210000000
H    -1.639000000    -0.054000000    -5.333000000
C    -2.906000000     1.877000000    -7.849000000
H    -3.843000000     2.185000000    -8.304000000
C    -1.739000000     2.108000000    -8.564000000
H    -1.692000000     2.658000000    -9.500000000
C    -0.566000000     1.446000000    -8.161000000
H     0.343000000     1.585000000    -8.741000000
C    -0.486000000     0.651000000    -7.043000000
O     0.753000000    -0.005000000    -6.809000000
C     1.614000000     0.270000000    -5.725000000
C     2.838000000    -0.373000000    -5.780000000
H     3.103000000    -0.981000000    -6.642000000
C     3.788000000    -0.218000000    -4.810000000
O     4.888000000    -1.056000000    -4.900000000
C     5.438000000    -1.628000000    -3.799000000
C     6.863000000    -1.525000000    -3.656000000
H     7.484000000    -1.139000000    -4.461000000
C     7.480000000    -2.222000000    -2.658000000
H     8.560000000    -2.262000000    -2.541000000
C     6.710000000    -3.013000000    -1.789000000
H     7.183000000    -3.649000000    -1.045000000
C     5.325000000    -3.062000000    -1.951000000
C     4.649000000    -2.364000000    -2.951000000
H     3.567000000    -2.439000000    -3.031000000
C    -0.487000000    -2.458000000     0.081000000
H    -0.753000000    -3.495000000     0.271000000
C    -0.031000000    -1.588000000     1.104000000
H     0.081000000    -1.946000000     2.124000000
C     0.203000000    -0.222000000     0.874000000
H     0.473000000     0.443000000     1.646000000
C    -0.177000000     0.285000000    -0.370000000
H    -0.177000000     1.351000000    -0.586000000
C    -0.548000000    -0.602000000    -1.386000000
H    -0.816000000    -0.178000000    -2.350000000
C    -0.645000000    -1.953000000    -1.258000000
C    -1.113000000    -2.876000000    -2.420000000
O    -1.441000000    -2.456000000    -3.539000000
O    -1.158000000    -4.094000000    -2.281000000
O    -1.250000000    -5.977000000    -4.076000000
H    -1.489000000    -5.392000000    -3.357000000
H    -1.428000000    -5.469000000    -4.868000000
O    -0.320000000    -2.680000000    -5.970000000
H    -0.267000000    -1.916000000    -6.544000000
H    -0.674000000    -2.338000000    -5.148000000
O     2.049000000    -7.927000000     0.385000000
H     1.901000000    -7.070000000    -0.013000000
H     1.171000000    -8.258000000     0.576000000
O    -3.193000000    -3.808000000    -4.855000000
H    -2.655000000    -3.129000000    -4.449000000
H    -3.566000000    -3.387000000    -5.630000000
O    -3.961000000    -4.911000000    -2.449000000
H    -3.225000000    -4.520000000    -1.979000000
H    -3.779000000    -4.731000000    -3.371000000
O    -4.756000000    -3.017000000    -7.097000000
H    -4.293000000    -2.757000000    -7.893000000
H    -5.683000000    -2.962000000    -7.331000000
O    -1.471000000    -4.194000000    -8.039000000
H    -0.998000000    -3.666000000    -8.682000000
H    -1.267000000    -3.787000000    -7.197000000
O    -4.162000000    -8.866000000    -2.496000000
H    -3.516000000    -9.213000000    -3.111000000
H    -3.772000000    -8.054000000    -2.173000000
O     3.817000000    -5.221000000    -4.383000000
H     2.985000000    -4.776000000    -4.544000000
H     4.380000000    -4.945000000    -5.105000000
O    -1.645000000    -7.571000000    -1.905000000
H    -1.121000000    -6.856000000    -1.542000000
H    -1.646000000    -7.412000000    -2.849000000
O     1.010000000    -7.617000000    -4.538000000
H     1.702000000    -7.427000000    -3.905000000
H     0.338000000    -6.959000000    -4.363000000
O    -1.808000000    -9.197000000     0.211000000
H    -2.239000000    -8.686000000     0.896000000
H    -1.557000000    -8.550000000    -0.448000000
O    -7.313000000    -4.694000000    -2.905000000
H    -6.654000000    -4.655000000    -2.212000000
H    -6.808000000    -4.820000000    -3.709000000
O     1.781000000    -5.063000000    -7.017000000
H     1.655000000    -4.897000000    -6.082000000
H     2.162000000    -4.252000000    -7.354000000
O    -5.630000000    -6.625000000    -0.544000000
H    -5.478000000    -7.430000000    -1.040000000
H    -5.215000000    -5.939000000    -1.068000000
O     0.356000000    -5.790000000    -0.956000000
H     1.210000000    -5.525000000    -1.298000000
H    -0.258000000    -5.156000000    -1.327000000
O     1.236000000    -4.355000000    -4.395000000
H     0.935000000    -3.493000000    -4.683000000
H     0.557000000    -4.655000000    -3.790000000
O    -3.775000000    -6.311000000    -6.520000000
H    -3.603000000    -6.109000000    -7.440000000
H    -3.466000000    -5.540000000    -6.044000000
O     3.294000000    -6.117000000    -1.923000000
H     4.057000000    -5.722000000    -1.501000000
H     3.341000000    -5.818000000    -2.831000000
