215
-1441.41828
C    -3.039000000    -2.130000000     2.861000000
H    -3.434000000    -1.240000000     2.377000000
C    -2.089000000    -1.815000000     3.822000000
C    -1.573000000    -2.861000000     4.578000000
H    -0.784000000    -2.753000000     5.318000000
C    -1.661000000    -0.401000000     4.105000000
O    -2.752000000     0.567000000     4.393000000
H    -1.172000000    -0.082000000     3.173000000
O    -0.719000000    -0.380000000     5.131000000
C     0.376000000     0.348000000     4.802000000
C     1.503000000    -0.388000000     4.350000000
H     1.372000000    -1.455000000     4.189000000
C     2.608000000     0.257000000     3.868000000
O     3.546000000    -0.543000000     3.266000000
C     2.686000000     1.643000000     3.692000000
C     3.844000000     2.366000000     3.110000000
H     3.980000000     3.383000000     3.484000000
C     3.752000000     2.466000000     1.579000000
C     3.236000000     3.598000000     1.017000000
H     2.788000000     4.324000000     1.691000000
H     4.733000000     1.830000000     3.449000000
C     1.564000000     2.402000000     4.170000000
H     1.630000000     3.486000000     4.123000000
C     0.464000000     1.730000000     4.742000000
C    -0.781000000     2.549000000     5.073000000
H    -0.479000000     3.577000000     5.286000000
H    -1.201000000     2.104000000     5.978000000
C    -1.705000000     2.687000000     3.837000000
C    -1.620000000     3.802000000     3.011000000
H    -0.861000000     4.563000000     3.172000000
C    -2.624000000     1.712000000     3.584000000
C    -3.468000000     1.754000000     2.453000000
H    -4.242000000     1.011000000     2.278000000
C    -3.281000000     2.800000000     1.602000000
O    -4.063000000     2.896000000     0.532000000
C    -3.376000000     2.458000000    -0.687000000
C    -4.286000000     1.563000000    -1.558000000
C    -4.144000000     1.596000000    -2.944000000
H    -3.369000000     2.199000000    -3.411000000
C    -5.197000000     0.651000000    -0.956000000
H    -5.261000000     0.791000000     0.120000000
O    -2.871000000     3.551000000    -1.547000000
H    -2.525000000     1.815000000    -0.418000000
C    -2.365000000     3.832000000     1.851000000
C    -2.136000000     4.972000000     0.877000000
H    -1.668000000     5.771000000     1.455000000
H    -2.975000000     5.424000000     0.345000000
C    -1.176000000     4.638000000    -0.220000000
C     0.158000000     5.111000000    -0.155000000
H     0.572000000     5.633000000     0.704000000
C    -1.628000000     4.077000000    -1.398000000
C    -0.745000000     3.787000000    -2.401000000
H    -1.222000000     3.292000000    -3.243000000
C     0.638000000     3.992000000    -2.267000000
O     1.519000000     3.580000000    -3.250000000
C     2.332000000     2.417000000    -3.038000000
C     2.280000000     1.447000000    -4.230000000
C     1.031000000     1.247000000    -4.765000000
H     0.133000000     1.744000000    -4.408000000
C     3.352000000     0.684000000    -4.584000000
H     4.299000000     0.727000000    -4.052000000
O     3.701000000     2.748000000    -2.524000000
H     1.912000000     1.799000000    -2.231000000
C     1.025000000     4.764000000    -1.201000000
C     2.479000000     4.987000000    -0.890000000
H     2.758000000     5.743000000    -0.153000000
H     2.951000000     5.401000000    -1.784000000
C     3.121000000     3.747000000    -0.376000000
C     3.718000000     2.732000000    -1.186000000
C     4.250000000     1.594000000    -0.621000000
H     4.570000000     0.743000000    -1.216000000
C     4.219000000     1.462000000     0.768000000
O     4.615000000     0.200000000     1.273000000
C     3.602000000    -0.642000000     1.811000000
H     2.623000000    -0.332000000     1.417000000
C     3.829000000    -2.060000000     1.309000000
C     3.203000000    -3.128000000     1.959000000
H     2.613000000    -2.959000000     2.856000000
C     4.503000000    -2.268000000     0.123000000
H     4.959000000    -1.494000000    -0.489000000
C     4.488000000    -3.515000000    -0.550000000
O     5.189000000    -3.759000000    -1.718000000
C     3.829000000    -4.598000000     0.108000000
H     3.864000000    -5.576000000    -0.364000000
C     3.326000000    -4.431000000     1.397000000
O     2.694000000    -5.468000000     2.015000000
C     2.169000000    -5.466000000     3.282000000
C     0.740000000    -5.183000000     3.470000000
H     0.088000000    -5.048000000     2.611000000
C     2.895000000    -6.032000000     4.341000000
H     3.946000000    -6.285000000     4.220000000
C     2.331000000    -6.263000000     5.541000000
H     2.830000000    -6.633000000     6.433000000
C     0.996000000    -5.940000000     5.720000000
H     0.565000000    -6.159000000     6.693000000
C     0.217000000    -5.359000000     4.730000000
O    -1.162000000    -5.180000000     4.983000000
C    -1.961000000    -4.172000000     4.456000000
C    -2.840000000    -4.455000000     3.354000000
H    -3.168000000    -5.464000000     3.117000000
C    -3.410000000    -3.467000000     2.572000000
O    -4.156000000    -3.685000000     1.411000000
C    -5.343000000    -3.088000000     1.195000000
C    -5.532000000    -2.189000000     0.158000000
H    -4.739000000    -2.001000000    -0.561000000
C    -6.447000000    -3.422000000     2.014000000
H    -6.275000000    -4.134000000     2.818000000
C    -7.650000000    -2.808000000     1.815000000
H    -8.426000000    -2.935000000     2.566000000
C    -7.875000000    -1.961000000     0.744000000
H    -8.860000000    -1.562000000     0.518000000
C    -6.817000000    -1.665000000    -0.062000000
O    -7.082000000    -0.855000000    -1.161000000
C    -6.074000000    -0.088000000    -1.749000000
C    -6.035000000     0.043000000    -3.139000000
H    -6.704000000    -0.597000000    -3.709000000
C    -5.030000000     0.848000000    -3.682000000
O    -4.989000000     1.052000000    -5.057000000
C    -3.867000000     1.228000000    -5.771000000
C    -2.753000000     0.385000000    -5.581000000
H    -2.757000000    -0.487000000    -4.931000000
C    -3.656000000     2.466000000    -6.408000000
H    -4.475000000     3.172000000    -6.508000000
C    -2.438000000     2.792000000    -7.009000000
H    -2.486000000     3.653000000    -7.670000000
C    -1.413000000     1.853000000    -6.918000000
H    -0.433000000     2.060000000    -7.340000000
C    -1.567000000     0.745000000    -6.186000000
O    -0.502000000    -0.189000000    -6.104000000
C     0.795000000     0.172000000    -5.700000000
C     1.882000000    -0.600000000    -6.120000000
H     1.808000000    -1.451000000    -6.792000000
C     3.127000000    -0.403000000    -5.515000000
O     4.251000000    -1.169000000    -5.797000000
C     5.089000000    -1.511000000    -4.700000000
C     6.412000000    -1.193000000    -4.830000000
H     6.743000000    -0.704000000    -5.742000000
C     7.313000000    -1.857000000    -4.011000000
H     8.377000000    -1.662000000    -4.114000000
C     6.933000000    -2.698000000    -2.999000000
H     7.701000000    -3.247000000    -2.460000000
C     5.578000000    -2.818000000    -2.716000000
C     4.631000000    -2.367000000    -3.662000000
H     3.553000000    -2.505000000    -3.678000000
C    -0.892000000    -2.054000000     0.436000000
H    -1.150000000    -3.091000000     0.633000000
C    -0.109000000    -1.325000000     1.343000000
H     0.185000000    -1.846000000     2.251000000
C     0.261000000     0.022000000     1.080000000
H     0.787000000     0.692000000     1.684000000
C     0.030000000     0.532000000    -0.198000000
H     0.375000000     1.536000000    -0.428000000
C    -0.721000000    -0.237000000    -1.132000000
H    -1.074000000     0.177000000    -2.074000000
C    -1.295000000    -1.454000000    -0.787000000
C    -2.099000000    -2.224000000    -1.845000000
O    -1.947000000    -2.030000000    -3.039000000
O    -2.552000000    -3.320000000    -1.592000000
O     3.394000000    -6.237000000    -2.950000000
H     2.603000000    -6.773000000    -3.004000000
H     3.076000000    -5.365000000    -2.712000000
O    -1.667000000    -5.574000000    -2.657000000
H    -2.049000000    -4.718000000    -2.464000000
H    -0.858000000    -5.374000000    -3.128000000
O    -2.363000000    -3.221000000    -6.895000000
H    -2.545000000    -3.848000000    -7.596000000
H    -2.993000000    -2.515000000    -7.036000000
O    -4.391000000    -2.713000000    -3.970000000
H    -3.511000000    -2.506000000    -3.654000000
H    -4.871000000    -2.977000000    -3.184000000
O    -4.420000000    -5.265000000    -1.359000000
H    -4.123000000    -4.362000000    -1.248000000
H    -3.624000000    -5.756000000    -1.563000000
O    -4.816000000    -5.271000000    -6.067000000
H    -4.437000000    -4.657000000    -5.438000000
H    -4.140000000    -5.937000000    -6.189000000
O    -1.490000000    -7.550000000     0.762000000
H    -0.834000000    -8.119000000     1.165000000
H    -1.020000000    -6.736000000     0.579000000
O    -6.478000000    -2.437000000    -5.841000000
H    -6.850000000    -3.317000000    -5.782000000
H    -5.838000000    -2.399000000    -5.130000000
O    -7.731000000    -5.817000000    -2.273000000
H    -7.197000000    -5.069000000    -2.004000000
H    -7.335000000    -6.113000000    -3.093000000
O    -2.718000000    -7.836000000    -1.846000000
H    -2.362000000    -7.828000000    -0.958000000
H    -2.399000000    -7.023000000    -2.239000000
O     2.063000000    -1.299000000    -1.862000000
H     1.422000000    -1.114000000    -2.548000000
H     1.537000000    -1.447000000    -1.076000000
O    -1.959000000    -6.366000000    -7.217000000
H    -2.255000000    -5.894000000    -7.996000000
H    -1.310000000    -5.786000000    -6.818000000
O     0.277000000    -5.393000000    -4.695000000
H     1.121000000    -5.440000000    -5.143000000
H     0.172000000    -4.466000000    -4.481000000
O    -5.757000000    -6.868000000     0.325000000
H    -5.217000000    -6.286000000    -0.210000000
H    -6.211000000    -7.423000000    -0.309000000
O     0.553000000    -5.620000000    -0.055000000
H     1.363000000    -5.522000000     0.447000000
H     0.630000000    -4.978000000    -0.761000000
O     0.342000000    -2.619000000    -4.074000000
H     0.450000000    -2.354000000    -4.988000000
H    -0.540000000    -2.330000000    -3.844000000
O    -1.179000000    -7.983000000    -5.176000000
H    -0.960000000    -7.194000000    -4.680000000
H    -1.765000000    -7.675000000    -5.867000000
O     2.105000000    -3.919000000    -2.231000000
H     1.441000000    -3.759000000    -2.902000000
H     2.492000000    -3.059000000    -2.067000000
O     1.394000000    -8.285000000    -0.176000000
H     0.854000000    -8.655000000     0.523000000
H     0.987000000    -7.441000000    -0.372000000
