215
-1444.74263
C    -3.528000000    -1.736000000     2.849000000
H    -4.262000000    -0.935000000     2.864000000
C    -2.237000000    -1.355000000     3.287000000
C    -1.270000000    -2.334000000     3.282000000
H    -0.304000000    -2.177000000     3.756000000
C    -1.849000000     0.010000000     3.669000000
O    -3.044000000     0.879000000     3.815000000
H    -1.273000000     0.422000000     2.827000000
O    -0.926000000     0.130000000     4.853000000
C     0.151000000     0.881000000     4.664000000
C     1.422000000     0.284000000     4.592000000
H     1.650000000    -0.774000000     4.695000000
C     2.561000000     0.994000000     4.043000000
O     3.649000000     0.193000000     3.716000000
C     2.407000000     2.326000000     3.668000000
C     3.614000000     3.071000000     3.155000000
H     3.522000000     4.136000000     3.379000000
C     3.657000000     2.921000000     1.636000000
C     2.951000000     3.803000000     0.840000000
H     2.419000000     4.647000000     1.271000000
H     4.488000000     2.752000000     3.726000000
C     1.127000000     2.952000000     3.809000000
H     1.065000000     3.982000000     3.466000000
C     0.045000000     2.242000000     4.304000000
C    -1.245000000     3.015000000     4.395000000
H    -1.013000000     4.060000000     4.611000000
H    -1.819000000     2.756000000     5.288000000
C    -2.125000000     2.890000000     3.157000000
C    -2.017000000     3.853000000     2.233000000
H    -1.241000000     4.603000000     2.360000000
C    -3.067000000     1.910000000     2.926000000
C    -3.877000000     1.919000000     1.796000000
H    -4.608000000     1.122000000     1.682000000
C    -3.707000000     2.871000000     0.833000000
O    -4.424000000     2.788000000    -0.322000000
C    -3.671000000     2.122000000    -1.395000000
C    -4.494000000     1.121000000    -2.125000000
C    -3.963000000     0.706000000    -3.332000000
H    -3.139000000     1.178000000    -3.859000000
C    -5.656000000     0.547000000    -1.648000000
H    -6.087000000     1.042000000    -0.782000000
O    -3.167000000     3.065000000    -2.342000000
H    -2.758000000     1.689000000    -0.960000000
C    -2.775000000     3.894000000     1.030000000
C    -2.601000000     4.874000000    -0.084000000
H    -2.331000000     5.811000000     0.408000000
H    -3.530000000     5.116000000    -0.604000000
C    -1.565000000     4.475000000    -1.059000000
C    -0.251000000     4.782000000    -0.879000000
H     0.045000000     5.381000000    -0.021000000
C    -1.858000000     3.586000000    -2.169000000
C    -0.898000000     3.100000000    -3.047000000
H    -1.270000000     2.417000000    -3.807000000
C     0.408000000     3.535000000    -2.819000000
O     1.388000000     2.897000000    -3.569000000
C     2.223000000     1.850000000    -2.930000000
C     2.333000000     0.656000000    -3.850000000
C     1.377000000     0.418000000    -4.889000000
H     0.530000000     1.092000000    -4.984000000
C     3.284000000    -0.318000000    -3.663000000
H     4.080000000    -0.018000000    -2.986000000
O     3.475000000     2.384000000    -2.405000000
H     1.647000000     1.516000000    -2.054000000
C     0.765000000     4.299000000    -1.708000000
C     2.174000000     4.698000000    -1.424000000
H     2.069000000     5.678000000    -0.954000000
H     2.689000000     4.835000000    -2.377000000
C     2.975000000     3.740000000    -0.561000000
C     3.616000000     2.656000000    -1.109000000
C     4.297000000     1.682000000    -0.329000000
H     4.665000000     0.797000000    -0.841000000
C     4.305000000     1.891000000     1.059000000
O     4.905000000     0.898000000     1.841000000
C     4.001000000    -0.123000000     2.313000000
H     3.076000000    -0.118000000     1.718000000
C     4.539000000    -1.555000000     2.268000000
C     4.122000000    -2.409000000     3.296000000
H     3.533000000    -2.113000000     4.160000000
C     5.202000000    -2.041000000     1.166000000
H     5.438000000    -1.350000000     0.361000000
C     5.452000000    -3.401000000     0.981000000
O     5.972000000    -3.948000000    -0.160000000
C     5.163000000    -4.272000000     2.008000000
H     5.476000000    -5.303000000     1.861000000
C     4.536000000    -3.764000000     3.139000000
O     4.055000000    -4.641000000     4.024000000
C     2.728000000    -4.689000000     4.325000000
C     1.794000000    -4.522000000     3.298000000
H     2.097000000    -4.290000000     2.280000000
C     2.239000000    -5.035000000     5.596000000
H     2.945000000    -5.092000000     6.421000000
C     0.929000000    -5.411000000     5.796000000
H     0.630000000    -5.752000000     6.784000000
C     0.011000000    -5.166000000     4.795000000
H    -1.044000000    -5.375000000     4.953000000
C     0.456000000    -4.786000000     3.538000000
O    -0.493000000    -4.529000000     2.641000000
C    -1.504000000    -3.648000000     2.815000000
C    -2.793000000    -3.956000000     2.284000000
H    -3.034000000    -4.931000000     1.869000000
C    -3.746000000    -3.017000000     2.265000000
O    -5.006000000    -3.435000000     1.848000000
C    -6.088000000    -2.719000000     1.458000000
C    -6.218000000    -2.435000000     0.094000000
H    -5.451000000    -2.846000000    -0.559000000
C    -7.014000000    -2.182000000     2.330000000
H    -6.944000000    -2.308000000     3.407000000
C    -8.048000000    -1.348000000     1.896000000
H    -8.662000000    -0.941000000     2.695000000
C    -8.166000000    -1.132000000     0.504000000
H    -8.862000000    -0.373000000     0.156000000
C    -7.257000000    -1.656000000    -0.394000000
O    -7.276000000    -1.307000000    -1.691000000
C    -6.258000000    -0.536000000    -2.270000000
C    -5.697000000    -0.978000000    -3.464000000
H    -6.095000000    -1.833000000    -4.005000000
C    -4.537000000    -0.404000000    -3.960000000
O    -4.073000000    -0.748000000    -5.231000000
C    -3.026000000    -0.243000000    -5.910000000
C    -1.799000000    -0.866000000    -5.834000000
H    -1.678000000    -1.654000000    -5.095000000
C    -3.204000000     0.876000000    -6.731000000
H    -4.167000000     1.379000000    -6.710000000
C    -2.184000000     1.326000000    -7.511000000
H    -2.308000000     2.241000000    -8.085000000
C    -0.902000000     0.653000000    -7.468000000
H    -0.020000000     1.000000000    -7.999000000
C    -0.767000000    -0.506000000    -6.697000000
O     0.541000000    -1.055000000    -6.629000000
C     1.484000000    -0.691000000    -5.729000000
C     2.491000000    -1.633000000    -5.515000000
H     2.616000000    -2.522000000    -6.128000000
C     3.434000000    -1.427000000    -4.498000000
O     4.404000000    -2.357000000    -4.247000000
C     5.296000000    -2.324000000    -3.237000000
C     6.391000000    -1.402000000    -3.332000000
H     6.480000000    -0.731000000    -4.182000000
C     7.412000000    -1.465000000    -2.413000000
H     8.210000000    -0.748000000    -2.585000000
C     7.322000000    -2.338000000    -1.300000000
H     8.049000000    -2.398000000    -0.494000000
C     6.198000000    -3.115000000    -1.189000000
C     5.169000000    -3.067000000    -2.108000000
H     4.276000000    -3.655000000    -1.911000000
C     0.690000000    -2.223000000     0.072000000
H     1.070000000    -3.130000000     0.536000000
C     0.603000000    -1.175000000     0.983000000
H     0.999000000    -1.334000000     1.983000000
C     0.100000000     0.042000000     0.567000000
H     0.066000000     0.807000000     1.248000000
C    -0.343000000     0.213000000    -0.763000000
H    -0.591000000     1.224000000    -1.076000000
C    -0.388000000    -0.860000000    -1.678000000
H    -0.720000000    -0.746000000    -2.706000000
C     0.259000000    -2.056000000    -1.247000000
C     0.655000000    -3.105000000    -2.296000000
O     0.470000000    -2.943000000    -3.481000000
O     1.167000000    -4.131000000    -1.973000000
O    -0.960000000    -5.547000000    -2.371000000
H    -0.652000000    -5.955000000    -1.561000000
H    -0.217000000    -5.024000000    -2.672000000
O     0.420000000    -4.187000000    -5.709000000
H     1.202000000    -4.731000000    -5.621000000
H     0.343000000    -3.738000000    -4.867000000
O     4.203000000    -8.904000000    -0.138000000
H     3.834000000    -9.424000000     0.576000000
H     3.440000000    -8.540000000    -0.587000000
O     6.896000000    -4.509000000    -5.141000000
H     6.560000000    -4.556000000    -4.246000000
H     6.544000000    -5.289000000    -5.570000000
O    -2.728000000    -2.674000000    -0.763000000
H    -1.970000000    -2.677000000    -1.348000000
H    -2.385000000    -2.355000000     0.072000000
O    -3.403000000    -5.205000000    -1.041000000
H    -2.680000000    -5.345000000    -1.654000000
H    -3.372000000    -4.268000000    -0.846000000
O     6.735000000    -6.424000000    -2.785000000
H     7.169000000    -7.171000000    -3.197000000
H     5.800000000    -6.600000000    -2.895000000
O    -1.939000000    -5.051000000    -6.479000000
H    -1.990000000    -4.628000000    -7.336000000
H    -1.118000000    -4.733000000    -6.103000000
O    -1.144000000    -9.804000000    -3.552000000
H    -0.743000000    -9.148000000    -2.982000000
H    -1.070000000   -10.624000000    -3.063000000
O     0.519000000    -9.592000000    -0.718000000
H     0.138000000    -8.753000000    -0.461000000
H    -0.021000000   -10.247000000    -0.275000000
O    -6.066000000    -5.343000000    -2.221000000
H    -5.170000000    -5.383000000    -1.885000000
H    -6.006000000    -4.781000000    -2.994000000
O    -0.037000000    -3.172000000    -8.782000000
H    -0.023000000    -2.841000000    -7.884000000
H     0.431000000    -4.006000000    -8.737000000
O     2.596000000    -6.140000000    -0.703000000
H     3.181000000    -6.458000000    -1.390000000
H     2.140000000    -5.398000000    -1.100000000
O     2.557000000    -4.750000000    -3.993000000
H     2.981000000    -3.932000000    -4.254000000
H     1.927000000    -4.489000000    -3.321000000
O    -3.890000000    -7.561000000     0.152000000
H    -3.093000000    -8.022000000    -0.110000000
H    -3.773000000    -6.671000000    -0.180000000
O    -2.979000000    -6.177000000    -4.106000000
H    -2.394000000    -5.735000000    -3.491000000
H    -2.698000000    -5.869000000    -4.967000000
O     3.819000000    -6.875000000    -2.950000000
H     3.444000000    -6.055000000    -3.271000000
H     3.674000000    -7.499000000    -3.660000000
O     4.650000000    -1.035000000    -7.292000000
H     3.923000000    -1.369000000    -7.818000000
H     4.253000000    -0.367000000    -6.732000000
O    -0.257000000    -6.927000000    -0.083000000
H    -0.485000000    -6.971000000     0.846000000
H     0.657000000    -6.644000000    -0.092000000
