215
-1451.42980
C    -3.884000000    -0.909000000     3.093000000
H    -4.293000000    -0.124000000     2.462000000
C    -2.700000000    -0.618000000     3.830000000
C    -2.145000000    -1.561000000     4.729000000
H    -1.296000000    -1.161000000     5.277000000
C    -2.168000000     0.777000000     3.538000000
O    -3.178000000     1.813000000     3.366000000
H    -1.624000000     0.758000000     2.582000000
O    -1.343000000     1.223000000     4.645000000
C    -0.076000000     1.773000000     4.347000000
C     0.976000000     0.936000000     4.268000000
H     0.762000000    -0.129000000     4.298000000
C     2.244000000     1.272000000     3.880000000
O     3.149000000     0.291000000     3.785000000
C     2.442000000     2.593000000     3.412000000
C     3.744000000     3.027000000     2.711000000
H     3.959000000     4.083000000     2.885000000
C     3.875000000     2.629000000     1.281000000
C     3.572000000     3.522000000     0.211000000
H     3.407000000     4.585000000     0.365000000
H     4.511000000     2.538000000     3.316000000
C     1.300000000     3.460000000     3.427000000
H     1.390000000     4.413000000     2.913000000
C     0.065000000     3.103000000     3.962000000
C    -1.186000000     3.977000000     3.727000000
H    -0.846000000     5.014000000     3.676000000
H    -1.871000000     4.080000000     4.572000000
C    -1.915000000     3.711000000     2.466000000
C    -1.498000000     4.432000000     1.400000000
H    -0.666000000     5.128000000     1.473000000
C    -2.873000000     2.732000000     2.343000000
C    -3.492000000     2.558000000     1.091000000
H    -4.233000000     1.790000000     0.884000000
C    -3.148000000     3.396000000     0.022000000
O    -3.734000000     3.096000000    -1.136000000
C    -3.052000000     2.329000000    -2.171000000
C    -3.912000000     1.295000000    -2.903000000
C    -3.597000000     0.851000000    -4.171000000
H    -2.742000000     1.257000000    -4.705000000
C    -5.055000000     0.697000000    -2.211000000
H    -5.285000000     1.101000000    -1.229000000
O    -2.335000000     3.230000000    -2.991000000
H    -2.294000000     1.791000000    -1.584000000
C    -2.098000000     4.370000000     0.138000000
C    -1.610000000     5.219000000    -1.056000000
H    -1.259000000     6.223000000    -0.807000000
H    -2.459000000     5.432000000    -1.710000000
C    -0.585000000     4.486000000    -1.922000000
C     0.763000000     4.577000000    -1.748000000
H     1.135000000     5.342000000    -1.071000000
C    -1.008000000     3.422000000    -2.794000000
C    -0.106000000     2.723000000    -3.603000000
H    -0.485000000     2.046000000    -4.365000000
C     1.241000000     2.872000000    -3.334000000
O     2.066000000     2.004000000    -3.948000000
C     2.597000000     0.886000000    -3.204000000
C     2.586000000    -0.402000000    -3.953000000
C     1.518000000    -0.722000000    -4.790000000
H     0.883000000     0.141000000    -4.974000000
C     3.369000000    -1.480000000    -3.610000000
H     4.064000000    -1.426000000    -2.776000000
O     3.886000000     1.254000000    -2.699000000
H     1.896000000     0.678000000    -2.382000000
C     1.706000000     3.803000000    -2.408000000
C     3.193000000     4.008000000    -2.214000000
H     3.596000000     5.016000000    -2.094000000
H     3.656000000     3.609000000    -3.119000000
C     3.589000000     3.047000000    -1.094000000
C     3.905000000     1.735000000    -1.405000000
C     4.160000000     0.859000000    -0.350000000
H     4.433000000    -0.181000000    -0.504000000
C     4.203000000     1.328000000     0.927000000
O     4.363000000     0.386000000     1.830000000
C     3.329000000    -0.291000000     2.469000000
H     2.391000000    -0.156000000     1.911000000
C     3.554000000    -1.803000000     2.519000000
C     2.908000000    -2.523000000     3.510000000
H     2.207000000    -2.073000000     4.208000000
C     4.291000000    -2.526000000     1.598000000
H     4.782000000    -2.084000000     0.736000000
C     4.439000000    -3.961000000     1.683000000
O     5.203000000    -4.611000000     0.798000000
C     3.925000000    -4.623000000     2.780000000
H     3.933000000    -5.707000000     2.870000000
C     3.197000000    -3.915000000     3.716000000
O     2.510000000    -4.586000000     4.669000000
C     1.520000000    -4.075000000     5.508000000
C     0.175000000    -3.926000000     5.100000000
H    -0.146000000    -4.010000000     4.065000000
C     1.854000000    -3.613000000     6.793000000
H     2.874000000    -3.479000000     7.143000000
C     0.862000000    -3.367000000     7.757000000
H     1.079000000    -3.146000000     8.799000000
C    -0.502000000    -3.478000000     7.345000000
H    -1.320000000    -3.223000000     8.014000000
C    -0.801000000    -3.653000000     6.017000000
O    -2.104000000    -3.720000000     5.580000000
C    -2.755000000    -2.796000000     4.779000000
C    -3.830000000    -3.159000000     3.995000000
H    -4.240000000    -4.165000000     4.043000000
C    -4.333000000    -2.255000000     3.108000000
O    -5.348000000    -2.746000000     2.320000000
C    -6.097000000    -1.954000000     1.579000000
C    -5.934000000    -1.902000000     0.198000000
H    -5.251000000    -2.588000000    -0.297000000
C    -6.907000000    -1.035000000     2.252000000
H    -6.897000000    -0.950000000     3.336000000
C    -7.755000000    -0.222000000     1.485000000
H    -8.399000000     0.522000000     1.948000000
C    -7.643000000    -0.226000000     0.083000000
H    -8.342000000     0.392000000    -0.475000000
C    -6.757000000    -1.046000000    -0.563000000
O    -6.655000000    -1.071000000    -1.966000000
C    -5.773000000    -0.316000000    -2.785000000
C    -5.516000000    -0.708000000    -4.096000000
H    -6.128000000    -1.462000000    -4.582000000
C    -4.388000000    -0.172000000    -4.769000000
O    -4.048000000    -0.576000000    -6.082000000
C    -2.824000000    -0.367000000    -6.572000000
C    -1.851000000    -1.350000000    -6.285000000
H    -2.071000000    -2.360000000    -5.949000000
C    -2.593000000     0.783000000    -7.362000000
H    -3.310000000     1.595000000    -7.449000000
C    -1.298000000     1.042000000    -7.703000000
H    -1.157000000     1.947000000    -8.289000000
C    -0.285000000     0.160000000    -7.260000000
H     0.729000000     0.389000000    -7.578000000
C    -0.507000000    -1.075000000    -6.622000000
O     0.515000000    -2.067000000    -6.427000000
C     1.483000000    -1.926000000    -5.471000000
C     2.360000000    -2.913000000    -5.258000000
H     2.338000000    -3.827000000    -5.846000000
C     3.338000000    -2.726000000    -4.328000000
O     4.075000000    -3.862000000    -3.857000000
C     5.061000000    -3.865000000    -2.856000000
C     6.345000000    -3.637000000    -3.179000000
H     6.720000000    -3.392000000    -4.170000000
C     7.249000000    -3.600000000    -2.139000000
H     8.256000000    -3.228000000    -2.309000000
C     6.825000000    -3.875000000    -0.796000000
H     7.582000000    -3.920000000    -0.018000000
C     5.506000000    -4.218000000    -0.472000000
C     4.594000000    -4.251000000    -1.580000000
H     3.549000000    -4.530000000    -1.474000000
C     0.587000000    -1.749000000     0.162000000
H     1.021000000    -2.321000000     0.978000000
C     0.284000000    -0.421000000     0.350000000
H     0.498000000     0.137000000     1.258000000
C    -0.246000000     0.237000000    -0.726000000
H    -0.236000000     1.326000000    -0.803000000
C    -0.643000000    -0.367000000    -1.864000000
H    -1.029000000     0.192000000    -2.713000000
C    -0.410000000    -1.732000000    -2.007000000
H    -0.704000000    -2.127000000    -2.977000000
C     0.281000000    -2.461000000    -1.010000000
C     0.519000000    -3.963000000    -1.099000000
O     0.368000000    -4.553000000    -2.180000000
O     0.958000000    -4.552000000    -0.119000000
O    -0.748000000    -8.009000000     0.864000000
H    -0.301000000    -8.468000000     1.575000000
H    -0.792000000    -8.651000000     0.155000000
O    -0.447000000    -4.642000000    -4.720000000
H    -0.363000000    -3.740000000    -5.030000000
H    -0.004000000    -4.645000000    -3.871000000
O     5.860000000    -7.387000000     0.200000000
H     5.318000000    -6.623000000     0.396000000
H     5.278000000    -8.135000000     0.333000000
O    -3.397000000    -7.193000000    -1.171000000
H    -3.012000000    -6.447000000    -1.631000000
H    -3.933000000    -7.631000000    -1.831000000
O    -3.323000000    -4.082000000    -2.537000000
H    -2.627000000    -3.459000000    -2.745000000
H    -3.488000000    -3.954000000    -1.603000000
O     3.438000000    -8.583000000    -1.373000000
H     3.058000000    -8.517000000    -2.249000000
H     3.301000000    -7.718000000    -0.987000000
O     0.301000000    -7.221000000    -1.551000000
H    -0.017000000    -7.262000000    -0.649000000
H     0.469000000    -6.292000000    -1.704000000
O     5.246000000    -5.976000000    -5.587000000
H     4.917000000    -5.307000000    -4.986000000
H     4.462000000    -6.315000000    -6.020000000
O    -4.169000000    -7.983000000    -3.849000000
H    -4.418000000    -7.701000000    -4.729000000
H    -3.302000000    -7.602000000    -3.712000000
O     1.676000000    -8.291000000    -3.816000000
H     1.613000000    -7.671000000    -4.542000000
H     1.185000000    -7.878000000    -3.106000000
O    -1.340000000    -5.899000000    -7.352000000
H    -1.440000000    -5.463000000    -6.506000000
H    -1.778000000    -6.743000000    -7.240000000
O    -1.535000000    -7.191000000    -3.692000000
H    -1.508000000    -6.360000000    -4.167000000
H    -0.723000000    -7.202000000    -3.184000000
O    -0.576000000    -5.376000000     1.877000000
H    -0.966000000    -6.044000000     1.313000000
H     0.133000000    -5.004000000     1.352000000
O    -4.844000000    -5.674000000     0.737000000
H    -5.748000000    -5.984000000     0.784000000
H    -4.363000000    -6.399000000     0.338000000
O     2.816000000    -6.432000000     0.102000000
H     2.627000000    -6.592000000     1.026000000
H     2.289000000    -5.665000000    -0.122000000
O    -2.818000000    -4.193000000     0.052000000
H    -3.649000000    -4.652000000     0.172000000
H    -2.315000000    -4.398000000     0.840000000
O     1.874000000   -10.324000000     0.515000000
H     2.126000000    -9.745000000    -0.205000000
H     1.676000000   -11.160000000     0.093000000
O    -0.095000000    -7.124000000     4.064000000
H    -0.606000000    -6.429000000     3.648000000
H     0.343000000    -7.567000000     3.338000000
O     2.388000000    -6.666000000    -6.254000000
H     2.772000000    -7.537000000    -6.359000000
H     1.845000000    -6.548000000    -7.034000000
