215
-1474.29755
C    -4.373000000    -0.035000000     3.007000000
H    -4.584000000     0.561000000     2.122000000
C    -3.200000000     0.220000000     3.722000000
C    -2.806000000    -0.730000000     4.660000000
H    -1.897000000    -0.490000000     5.206000000
C    -2.401000000     1.492000000     3.418000000
O    -3.195000000     2.652000000     3.087000000
H    -1.781000000     1.168000000     2.569000000
O    -1.494000000     1.876000000     4.422000000
C    -0.217000000     2.201000000     4.073000000
C     0.747000000     1.183000000     4.223000000
H     0.471000000     0.234000000     4.675000000
C     2.032000000     1.498000000     3.821000000
O     2.904000000     0.456000000     3.913000000
C     2.373000000     2.794000000     3.321000000
C     3.754000000     3.013000000     2.833000000
H     3.994000000     4.079000000     2.838000000
C     3.894000000     2.532000000     1.429000000
C     3.702000000     3.397000000     0.354000000
H     3.385000000     4.418000000     0.550000000
H     4.512000000     2.603000000     3.503000000
C     1.381000000     3.766000000     3.202000000
H     1.569000000     4.730000000     2.737000000
C     0.097000000     3.476000000     3.520000000
C    -1.010000000     4.525000000     3.273000000
H    -0.548000000     5.510000000     3.178000000
H    -1.660000000     4.571000000     4.149000000
C    -1.857000000     4.374000000     2.008000000
C    -1.388000000     4.953000000     0.769000000
H    -0.497000000     5.575000000     0.798000000
C    -2.835000000     3.442000000     1.934000000
C    -3.292000000     2.993000000     0.722000000
H    -3.924000000     2.109000000     0.691000000
C    -2.962000000     3.629000000    -0.435000000
O    -3.539000000     3.069000000    -1.604000000
C    -2.679000000     2.177000000    -2.362000000
C    -3.393000000     0.956000000    -2.816000000
C    -2.705000000     0.042000000    -3.585000000
H    -1.688000000     0.248000000    -3.909000000
C    -4.706000000     0.664000000    -2.478000000
H    -5.219000000     1.418000000    -1.885000000
O    -1.956000000     2.800000000    -3.465000000
H    -1.809000000     1.807000000    -1.801000000
C    -1.951000000     4.561000000    -0.449000000
C    -1.376000000     5.102000000    -1.720000000
H    -1.070000000     6.131000000    -1.516000000
H    -2.169000000     5.222000000    -2.461000000
C    -0.320000000     4.210000000    -2.358000000
C     1.038000000     4.419000000    -2.033000000
H     1.289000000     5.191000000    -1.309000000
C    -0.645000000     3.135000000    -3.215000000
C     0.379000000     2.381000000    -3.754000000
H     0.068000000     1.530000000    -4.355000000
C     1.712000000     2.557000000    -3.390000000
O     2.602000000     1.648000000    -3.896000000
C     3.136000000     0.676000000    -3.090000000
C     3.399000000    -0.569000000    -3.888000000
C     2.636000000    -0.765000000    -5.037000000
H     1.819000000    -0.097000000    -5.298000000
C     4.389000000    -1.497000000    -3.504000000
H     4.972000000    -1.278000000    -2.613000000
O     4.357000000     1.240000000    -2.508000000
H     2.499000000     0.400000000    -2.237000000
C     2.082000000     3.622000000    -2.539000000
C     3.501000000     3.913000000    -2.138000000
H     3.523000000     4.943000000    -1.774000000
H     4.177000000     3.889000000    -2.995000000
C     3.876000000     2.980000000    -0.982000000
C     4.283000000     1.673000000    -1.238000000
C     4.407000000     0.825000000    -0.143000000
H     4.826000000    -0.168000000    -0.287000000
C     4.318000000     1.244000000     1.126000000
O     4.397000000     0.324000000     2.144000000
C     3.117000000    -0.139000000     2.593000000
H     2.356000000     0.274000000     1.915000000
C     3.009000000    -1.697000000     2.642000000
C     2.261000000    -2.283000000     3.657000000
H     1.925000000    -1.672000000     4.491000000
C     3.341000000    -2.404000000     1.476000000
H     3.766000000    -1.813000000     0.669000000
C     3.096000000    -3.771000000     1.445000000
O     3.508000000    -4.541000000     0.373000000
C     2.460000000    -4.406000000     2.506000000
H     2.302000000    -5.481000000     2.528000000
C     2.022000000    -3.694000000     3.595000000
O     1.395000000    -4.378000000     4.604000000
C     0.502000000    -3.808000000     5.491000000
C    -0.797000000    -3.615000000     5.081000000
H    -1.222000000    -3.793000000     4.096000000
C     0.897000000    -3.656000000     6.829000000
H     1.943000000    -3.812000000     7.080000000
C    -0.048000000    -3.228000000     7.786000000
H     0.251000000    -2.974000000     8.800000000
C    -1.348000000    -2.967000000     7.365000000
H    -2.060000000    -2.583000000     8.090000000
C    -1.674000000    -3.136000000     6.051000000
O    -2.973000000    -2.989000000     5.605000000
C    -3.439000000    -1.988000000     4.727000000
C    -4.719000000    -2.130000000     4.197000000
H    -5.350000000    -2.925000000     4.584000000
C    -5.172000000    -1.148000000     3.329000000
O    -6.392000000    -1.400000000     2.681000000
C    -6.900000000    -0.991000000     1.522000000
C    -6.249000000    -1.099000000     0.313000000
H    -5.280000000    -1.556000000     0.126000000
C    -8.115000000    -0.354000000     1.687000000
H    -8.540000000    -0.296000000     2.686000000
C    -8.701000000     0.224000000     0.573000000
H    -9.579000000     0.857000000     0.675000000
C    -8.154000000     0.050000000    -0.668000000
H    -8.581000000     0.555000000    -1.532000000
C    -6.936000000    -0.643000000    -0.808000000
O    -6.580000000    -0.798000000    -2.124000000
C    -5.282000000    -0.558000000    -2.620000000
C    -4.630000000    -1.430000000    -3.468000000
H    -5.012000000    -2.442000000    -3.571000000
C    -3.303000000    -1.184000000    -3.882000000
O    -2.600000000    -2.141000000    -4.604000000
C    -1.622000000    -1.845000000    -5.628000000
C    -0.298000000    -2.361000000    -5.626000000
H    -0.064000000    -2.954000000    -4.745000000
C    -2.047000000    -1.103000000    -6.740000000
H    -3.101000000    -0.845000000    -6.801000000
C    -1.079000000    -0.786000000    -7.723000000
H    -1.445000000    -0.110000000    -8.492000000
C     0.204000000    -1.210000000    -7.664000000
H     0.900000000    -0.852000000    -8.419000000
C     0.575000000    -2.123000000    -6.675000000
O     1.879000000    -2.454000000    -6.627000000
C     2.791000000    -1.931000000    -5.753000000
C     3.667000000    -2.900000000    -5.323000000
H     3.850000000    -3.812000000    -5.885000000
C     4.507000000    -2.731000000    -4.185000000
O     5.493000000    -3.534000000    -3.832000000
C     5.660000000    -3.944000000    -2.538000000
C     6.914000000    -4.255000000    -2.067000000
H     7.787000000    -4.261000000    -2.715000000
C     7.006000000    -4.489000000    -0.695000000
H     8.018000000    -4.594000000    -0.314000000
C     5.907000000    -4.683000000     0.125000000
H     5.922000000    -5.034000000     1.154000000
C     4.672000000    -4.465000000    -0.393000000
C     4.514000000    -4.158000000    -1.748000000
H     3.519000000    -3.996000000    -2.156000000
C    -0.438000000    -2.144000000     0.793000000
H    -0.635000000    -2.915000000     1.533000000
C    -0.564000000    -0.824000000     1.153000000
H    -0.746000000    -0.635000000     2.208000000
C    -0.268000000     0.205000000     0.257000000
H    -0.322000000     1.301000000     0.543000000
C     0.030000000    -0.143000000    -1.081000000
H     0.272000000     0.612000000    -1.824000000
C    -0.063000000    -1.456000000    -1.491000000
H     0.184000000    -1.725000000    -2.515000000
C    -0.186000000    -2.461000000    -0.557000000
C    -0.077000000    -3.931000000    -0.844000000
O    -0.206000000    -4.246000000    -2.010000000
O    -0.124000000    -4.850000000    -0.031000000
O    -3.339000000    -6.365000000    -5.132000000
H    -3.237000000    -5.853000000    -4.330000000
H    -2.833000000    -7.162000000    -4.973000000
O    -0.345000000    -8.784000000     1.311000000
H     0.438000000    -8.400000000     0.918000000
H    -1.052000000    -8.185000000     1.072000000
O     1.240000000    -5.447000000    -3.888000000
H     1.627000000    -6.074000000    -3.277000000
H     0.723000000    -4.861000000    -3.335000000
O    -3.101000000    -2.454000000    -0.878000000
H    -2.333000000    -1.907000000    -1.042000000
H    -2.908000000    -2.897000000    -0.052000000
O    -3.631000000    -4.228000000     1.130000000
H    -2.886000000    -4.152000000     1.726000000
H    -3.720000000    -5.168000000     0.975000000
O    -3.665000000    -6.967000000     3.166000000
H    -2.803000000    -6.551000000     3.189000000
H    -3.841000000    -7.102000000     2.235000000
O     1.550000000    -6.952000000     0.292000000
H     2.384000000    -6.676000000     0.672000000
H     1.016000000    -6.157000000     0.283000000
O    -2.588000000    -4.927000000    -3.100000000
H    -1.841000000    -4.423000000    -2.778000000
H    -3.354000000    -4.467000000    -2.757000000
O     2.553000000    -7.134000000    -2.270000000
H     3.398000000    -7.579000000    -2.205000000
H     2.344000000    -6.884000000    -1.371000000
O     0.896000000    -9.073000000    -3.884000000
H     1.696000000    -9.560000000    -4.083000000
H     1.175000000    -8.157000000    -3.857000000
O     1.829000000    -6.126000000    -6.744000000
H     1.590000000    -5.866000000    -5.854000000
H     2.771000000    -6.290000000    -6.701000000
O    -5.130000000    -4.224000000    -1.592000000
H    -5.382000000    -4.619000000    -0.758000000
H    -4.543000000    -3.507000000    -1.350000000
O    -1.523000000    -6.670000000    -1.335000000
H    -1.020000000    -5.901000000    -1.068000000
H    -2.082000000    -6.355000000    -2.045000000
O     4.036000000    -7.446000000     2.345000000
H     4.228000000    -7.502000000     3.281000000
H     3.155000000    -7.810000000     2.260000000
O    -1.174000000    -5.663000000     2.476000000
H    -0.534000000    -6.158000000     2.988000000
H    -0.705000000    -5.418000000     1.679000000
O    -3.721000000    -6.848000000     0.298000000
H    -2.863000000    -6.841000000    -0.127000000
H    -4.286000000    -7.323000000    -0.312000000
O     0.457000000    -7.240000000     4.226000000
H    -0.005000000    -8.078000000     4.197000000
H     0.861000000    -7.219000000     5.093000000
O     4.704000000    -6.251000000    -4.674000000
H     4.622000000    -6.977000000    -4.056000000
H     4.306000000    -5.507000000    -4.224000000
O    -1.045000000    -9.304000000    -2.016000000
H    -1.102000000    -8.375000000    -1.793000000
H    -0.364000000    -9.347000000    -2.688000000
