215
-1468.17452
C    -4.695000000     0.487000000     2.393000000
H    -4.874000000     1.483000000     1.997000000
C    -3.553000000     0.380000000     3.192000000
C    -3.145000000    -0.878000000     3.680000000
H    -2.222000000    -0.883000000     4.253000000
C    -2.585000000     1.599000000     3.190000000
O    -3.142000000     2.944000000     2.844000000
H    -1.898000000     1.349000000     2.368000000
O    -1.921000000     1.705000000     4.510000000
C    -0.544000000     1.761000000     4.451000000
C     0.136000000     0.522000000     4.631000000
H    -0.310000000    -0.439000000     4.877000000
C     1.521000000     0.490000000     4.469000000
O     2.062000000    -0.707000000     4.537000000
C     2.163000000     1.628000000     3.909000000
C     3.671000000     1.623000000     3.670000000
H     4.103000000     2.611000000     3.842000000
C     4.034000000     1.236000000     2.235000000
C     4.180000000     2.236000000     1.278000000
H     4.147000000     3.275000000     1.594000000
H     4.080000000     0.944000000     4.421000000
C     1.517000000     2.873000000     3.872000000
H     2.047000000     3.759000000     3.534000000
C     0.138000000     2.941000000     4.054000000
C    -0.653000000     4.205000000     3.765000000
H    -0.069000000     5.091000000     4.025000000
H    -1.524000000     4.194000000     4.423000000
C    -1.092000000     4.249000000     2.317000000
C    -0.364000000     4.901000000     1.329000000
H     0.589000000     5.353000000     1.593000000
C    -2.261000000     3.583000000     1.940000000
C    -2.642000000     3.550000000     0.616000000
H    -3.573000000     3.045000000     0.372000000
C    -1.875000000     4.210000000    -0.369000000
O    -2.293000000     4.137000000    -1.680000000
C    -1.522000000     3.131000000    -2.407000000
C    -2.467000000     2.184000000    -3.174000000
C    -2.015000000     1.672000000    -4.424000000
H    -1.010000000     1.924000000    -4.754000000
C    -3.708000000     1.795000000    -2.666000000
H    -4.017000000     2.100000000    -1.670000000
O    -0.580000000     3.708000000    -3.302000000
H    -1.040000000     2.418000000    -1.722000000
C    -0.723000000     4.888000000    -0.022000000
C     0.160000000     5.464000000    -1.066000000
H     0.726000000     6.334000000    -0.728000000
H    -0.523000000     5.926000000    -1.783000000
C     1.072000000     4.491000000    -1.737000000
C     2.365000000     4.269000000    -1.189000000
H     2.737000000     4.674000000    -0.251000000
C     0.703000000     3.728000000    -2.872000000
C     1.623000000     2.864000000    -3.464000000
H     1.251000000     2.257000000    -4.285000000
C     2.880000000     2.629000000    -2.936000000
O     3.544000000     1.567000000    -3.331000000
C     3.468000000     0.386000000    -2.515000000
C     3.162000000    -0.831000000    -3.433000000
C     2.771000000    -0.748000000    -4.817000000
H     2.517000000     0.147000000    -5.378000000
C     3.331000000    -2.145000000    -2.875000000
H     3.538000000    -2.246000000    -1.812000000
O     4.617000000     0.186000000    -1.651000000
H     2.588000000     0.523000000    -1.869000000
C     3.248000000     3.396000000    -1.805000000
C     4.548000000     3.076000000    -1.102000000
H     4.975000000     3.985000000    -0.674000000
H     5.322000000     2.786000000    -1.817000000
C     4.383000000     1.904000000    -0.080000000
C     4.451000000     0.556000000    -0.392000000
C     4.219000000    -0.417000000     0.575000000
H     4.146000000    -1.440000000     0.216000000
C     4.093000000    -0.076000000     1.901000000
O     3.861000000    -1.065000000     2.890000000
C     2.478000000    -1.292000000     3.247000000
H     1.838000000    -0.782000000     2.512000000
C     2.176000000    -2.843000000     3.260000000
C     1.332000000    -3.388000000     4.219000000
H     0.737000000    -2.766000000     4.882000000
C     2.883000000    -3.690000000     2.365000000
H     3.554000000    -3.273000000     1.618000000
C     2.628000000    -5.021000000     2.382000000
O     3.310000000    -5.889000000     1.437000000
C     1.711000000    -5.535000000     3.291000000
H     1.612000000    -6.617000000     3.270000000
C     1.128000000    -4.774000000     4.268000000
O     0.219000000    -5.418000000     5.064000000
C    -0.929000000    -4.816000000     5.449000000
C    -1.871000000    -4.458000000     4.519000000
H    -1.600000000    -4.567000000     3.472000000
C    -1.221000000    -4.676000000     6.809000000
H    -0.557000000    -5.070000000     7.575000000
C    -2.443000000    -4.111000000     7.111000000
H    -2.651000000    -4.077000000     8.178000000
C    -3.300000000    -3.559000000     6.150000000
H    -4.155000000    -2.978000000     6.485000000
C    -2.999000000    -3.755000000     4.881000000
O    -3.823000000    -3.303000000     3.871000000
C    -4.022000000    -2.005000000     3.458000000
C    -5.209000000    -1.845000000     2.801000000
H    -5.876000000    -2.702000000     2.764000000
C    -5.528000000    -0.668000000     2.153000000
O    -6.753000000    -0.555000000     1.532000000
C    -6.975000000     0.317000000     0.467000000
C    -6.171000000     0.104000000    -0.656000000
H    -5.639000000    -0.842000000    -0.725000000
C    -7.850000000     1.363000000     0.507000000
H    -8.440000000     1.574000000     1.395000000
C    -7.958000000     2.172000000    -0.627000000
H    -8.688000000     2.967000000    -0.759000000
C    -7.218000000     1.886000000    -1.768000000
H    -7.341000000     2.457000000    -2.685000000
C    -6.284000000     0.896000000    -1.774000000
O    -5.689000000     0.475000000    -2.953000000
C    -4.491000000     0.916000000    -3.412000000
C    -4.044000000     0.362000000    -4.613000000
H    -4.633000000    -0.405000000    -5.110000000
C    -2.819000000     0.772000000    -5.106000000
O    -2.412000000     0.162000000    -6.272000000
C    -1.194000000     0.159000000    -6.921000000
C    -0.185000000    -0.736000000    -6.420000000
H    -0.401000000    -1.435000000    -5.616000000
C    -1.139000000     0.759000000    -8.162000000
H    -2.001000000     1.266000000    -8.586000000
C     0.042000000     0.566000000    -8.910000000
H     0.023000000     0.914000000    -9.939000000
C     1.075000000    -0.201000000    -8.409000000
H     2.024000000    -0.299000000    -8.931000000
C     0.966000000    -0.892000000    -7.183000000
O     2.025000000    -1.761000000    -6.784000000
C     2.487000000    -1.893000000    -5.476000000
C     2.721000000    -3.148000000    -4.957000000
H     2.677000000    -4.032000000    -5.587000000
C     3.233000000    -3.260000000    -3.667000000
O     3.578000000    -4.423000000    -3.133000000
C     4.123000000    -4.663000000    -1.878000000
C     5.470000000    -4.249000000    -1.695000000
H     6.009000000    -3.921000000    -2.580000000
C     6.097000000    -4.376000000    -0.429000000
H     7.113000000    -4.064000000    -0.201000000
C     5.425000000    -5.025000000     0.573000000
H     5.932000000    -5.235000000     1.512000000
C     4.108000000    -5.439000000     0.404000000
C     3.494000000    -5.263000000    -0.807000000
H     2.438000000    -5.518000000    -0.844000000
C    -1.253000000    -0.817000000    -2.008000000
H    -1.511000000    -0.871000000    -3.063000000
C    -0.170000000    -0.109000000    -1.591000000
H     0.354000000     0.431000000    -2.375000000
C     0.237000000    -0.069000000    -0.264000000
H     1.070000000     0.597000000     0.008000000
C    -0.580000000    -0.689000000     0.671000000
H    -0.284000000    -0.488000000     1.697000000
C    -1.675000000    -1.473000000     0.299000000
H    -2.304000000    -1.911000000     1.069000000
C    -1.992000000    -1.581000000    -1.048000000
C    -3.135000000    -2.458000000    -1.444000000
O    -3.810000000    -3.034000000    -0.610000000
O    -3.301000000    -2.731000000    -2.611000000
O     0.269000000    -4.938000000     0.564000000
H    -0.609000000    -4.664000000     0.828000000
H     0.800000000    -4.145000000     0.643000000
O    -9.207000000    -1.601000000    -1.823000000
H    -8.864000000    -1.161000000    -2.600000000
H    -8.477000000    -2.133000000    -1.506000000
O    -3.834000000    -7.230000000    -4.175000000
H    -4.673000000    -7.332000000    -3.726000000
H    -3.520000000    -8.126000000    -4.302000000
O    -6.841000000    -3.025000000    -1.466000000
H    -6.097000000    -3.256000000    -0.910000000
H    -6.445000000    -2.744000000    -2.291000000
O    -5.501000000    -2.387000000    -3.871000000
H    -5.870000000    -3.172000000    -4.276000000
H    -4.618000000    -2.646000000    -3.608000000
O    -5.647000000    -4.454000000     0.958000000
H    -5.160000000    -5.132000000     1.426000000
H    -4.972000000    -3.924000000     0.534000000
O    -1.751000000    -4.925000000    -6.709000000
H    -1.397000000    -4.322000000    -7.362000000
H    -2.151000000    -4.358000000    -6.050000000
O    -2.438000000    -4.869000000     1.185000000
H    -2.847000000    -4.240000000     0.591000000
H    -3.110000000    -5.535000000     1.328000000
O    -8.067000000    -3.201000000     1.224000000
H    -7.353000000    -3.704000000     0.832000000
H    -7.719000000    -2.313000000     1.305000000
O    -2.387000000    -8.071000000    -0.456000000
H    -1.748000000    -8.433000000    -1.070000000
H    -2.477000000    -7.154000000    -0.717000000
O    -2.690000000    -3.140000000    -5.141000000
H    -2.722000000    -3.148000000    -4.185000000
H    -3.322000000    -2.467000000    -5.396000000
O    -8.434000000    -5.321000000    -1.158000000
H    -8.700000000    -5.181000000    -2.066000000
H    -8.231000000    -4.445000000    -0.830000000
O    -2.531000000    -5.432000000    -2.570000000
H    -3.116000000    -6.023000000    -3.043000000
H    -3.018000000    -4.611000000    -2.509000000
O    -0.257000000    -6.297000000    -1.763000000
H    -1.116000000    -6.089000000    -2.129000000
H    -0.089000000    -5.597000000    -1.132000000
O    -4.322000000    -6.725000000     2.017000000
H    -4.588000000    -7.546000000     1.603000000
H    -3.824000000    -6.996000000     2.788000000
O    -6.136000000    -6.870000000    -2.114000000
H    -6.889000000    -6.488000000    -1.662000000
H    -6.107000000    -7.776000000    -1.806000000
O    -8.295000000    -1.189000000    -4.605000000
H    -7.454000000    -1.145000000    -4.150000000
H    -8.063000000    -1.304000000    -5.526000000
O    -4.752000000    -5.037000000    -5.972000000
H    -4.034000000    -5.496000000    -5.537000000
H    -5.463000000    -5.041000000    -5.331000000
O    -6.643000000    -4.897000000    -4.035000000
H    -7.585000000    -4.773000000    -3.919000000
H    -6.440000000    -5.683000000    -3.527000000
