215
-1481.36075
C    -4.545000000     0.576000000     2.642000000
H    -4.803000000     1.139000000     1.748000000
C    -3.423000000     0.908000000     3.437000000
C    -3.088000000     0.117000000     4.544000000
H    -2.147000000     0.420000000     4.997000000
C    -2.403000000     2.000000000     2.912000000
O    -3.063000000     3.046000000     2.248000000
H    -1.724000000     1.569000000     2.161000000
O    -1.668000000     2.570000000     3.942000000
C    -0.326000000     2.798000000     3.817000000
C     0.546000000     1.859000000     4.277000000
H     0.176000000     1.145000000     5.010000000
C     1.884000000     1.924000000     3.884000000
O     2.594000000     0.831000000     4.196000000
C     2.394000000     3.019000000     3.222000000
C     3.772000000     3.055000000     2.785000000
H     3.987000000     4.122000000     2.701000000
C     4.016000000     2.342000000     1.498000000
C     4.036000000     2.946000000     0.249000000
H     3.784000000     4.003000000     0.242000000
H     4.484000000     2.755000000     3.558000000
C     1.466000000     4.077000000     2.884000000
H     1.844000000     4.931000000     2.328000000
C     0.129000000     3.912000000     3.122000000
C    -0.869000000     5.026000000     2.540000000
H    -0.405000000     6.005000000     2.403000000
H    -1.736000000     5.246000000     3.166000000
C    -1.351000000     4.456000000     1.212000000
C    -0.790000000     4.882000000    -0.014000000
H    -0.019000000     5.647000000     0.036000000
C    -2.439000000     3.590000000     1.167000000
C    -2.834000000     3.071000000    -0.018000000
H    -3.556000000     2.269000000    -0.146000000
C    -2.382000000     3.607000000    -1.233000000
O    -2.927000000     3.028000000    -2.402000000
C    -2.172000000     2.036000000    -2.994000000
C    -3.154000000     1.002000000    -3.585000000
C    -2.763000000     0.177000000    -4.687000000
H    -1.818000000     0.397000000    -5.177000000
C    -4.339000000     0.627000000    -2.908000000
H    -4.535000000     1.087000000    -1.943000000
O    -1.315000000     2.556000000    -4.080000000
H    -1.470000000     1.602000000    -2.266000000
C    -1.285000000     4.469000000    -1.258000000
C    -0.598000000     4.906000000    -2.578000000
H     0.050000000     5.784000000    -2.590000000
H    -1.300000000     4.957000000    -3.413000000
C     0.369000000     3.846000000    -2.943000000
C     1.738000000     3.962000000    -2.599000000
H     2.058000000     4.773000000    -1.950000000
C     0.019000000     2.752000000    -3.763000000
C     0.941000000     1.744000000    -4.107000000
H     0.673000000     0.889000000    -4.722000000
C     2.219000000     1.830000000    -3.593000000
O     3.169000000     0.882000000    -3.910000000
C     3.214000000    -0.114000000    -2.878000000
C     3.017000000    -1.538000000    -3.412000000
C     2.239000000    -1.860000000    -4.503000000
H     1.656000000    -1.097000000    -5.013000000
C     3.669000000    -2.567000000    -2.722000000
H     4.311000000    -2.427000000    -1.857000000
O     4.341000000     0.054000000    -2.002000000
H     2.330000000     0.049000000    -2.245000000
C     2.648000000     2.979000000    -2.894000000
C     4.005000000     2.994000000    -2.301000000
H     4.240000000     4.009000000    -1.974000000
H     4.733000000     2.664000000    -3.045000000
C     4.030000000     2.227000000    -0.960000000
C     4.190000000     0.823000000    -0.904000000
C     4.386000000     0.227000000     0.330000000
H     4.534000000    -0.847000000     0.410000000
C     4.254000000     0.941000000     1.504000000
O     4.315000000     0.169000000     2.644000000
C     2.950000000    -0.192000000     3.177000000
H     2.251000000    -0.122000000     2.330000000
C     2.919000000    -1.596000000     3.696000000
C     2.071000000    -1.991000000     4.753000000
H     1.579000000    -1.184000000     5.291000000
C     3.554000000    -2.624000000     2.923000000
H     4.062000000    -2.279000000     2.026000000
C     3.332000000    -3.970000000     3.156000000
O     3.647000000    -4.956000000     2.265000000
C     2.484000000    -4.320000000     4.238000000
H     2.342000000    -5.386000000     4.398000000
C     1.872000000    -3.380000000     5.022000000
O     1.031000000    -3.794000000     6.092000000
C     0.081000000    -2.888000000     6.475000000
C    -1.157000000    -2.748000000     5.846000000
H    -1.376000000    -3.341000000     4.961000000
C     0.330000000    -2.267000000     7.702000000
H     1.293000000    -2.403000000     8.187000000
C    -0.591000000    -1.336000000     8.204000000
H    -0.422000000    -0.655000000     9.033000000
C    -1.887000000    -1.251000000     7.578000000
H    -2.598000000    -0.497000000     7.907000000
C    -2.103000000    -1.903000000     6.380000000
O    -3.382000000    -1.870000000     5.814000000
C    -3.826000000    -0.991000000     4.876000000
C    -5.083000000    -1.203000000     4.206000000
H    -5.612000000    -2.142000000     4.348000000
C    -5.357000000    -0.476000000     3.046000000
O    -6.483000000    -0.836000000     2.307000000
C    -6.812000000    -0.255000000     1.040000000
C    -6.247000000    -0.672000000    -0.152000000
H    -5.565000000    -1.518000000    -0.129000000
C    -7.754000000     0.805000000     0.996000000
H    -8.256000000     1.084000000     1.919000000
C    -8.245000000     1.292000000    -0.251000000
H    -9.164000000     1.872000000    -0.262000000
C    -7.727000000     0.796000000    -1.452000000
H    -8.148000000     1.112000000    -2.404000000
C    -6.683000000    -0.179000000    -1.413000000
O    -6.230000000    -0.845000000    -2.555000000
C    -5.151000000    -0.376000000    -3.370000000
C    -4.793000000    -1.028000000    -4.521000000
H    -5.331000000    -1.906000000    -4.869000000
C    -3.560000000    -0.821000000    -5.129000000
O    -3.154000000    -1.816000000    -5.947000000
C    -1.892000000    -1.994000000    -6.580000000
C    -0.728000000    -2.410000000    -5.893000000
H    -0.860000000    -2.714000000    -4.858000000
C    -1.788000000    -1.576000000    -7.906000000
H    -2.648000000    -1.060000000    -8.325000000
C    -0.655000000    -1.663000000    -8.595000000
H    -0.611000000    -1.332000000    -9.629000000
C     0.357000000    -2.346000000    -7.975000000
H     1.262000000    -2.393000000    -8.576000000
C     0.369000000    -2.687000000    -6.631000000
O     1.428000000    -3.463000000    -6.140000000
C     2.136000000    -3.150000000    -4.992000000
C     2.836000000    -4.170000000    -4.294000000
H     2.787000000    -5.180000000    -4.692000000
C     3.565000000    -3.872000000    -3.139000000
O     4.332000000    -4.852000000    -2.556000000
C     4.813000000    -4.863000000    -1.277000000
C     6.187000000    -5.106000000    -1.076000000
H     6.935000000    -5.249000000    -1.852000000
C     6.680000000    -5.135000000     0.223000000
H     7.716000000    -5.331000000     0.488000000
C     5.829000000    -5.029000000     1.307000000
H     6.258000000    -5.115000000     2.302000000
C     4.496000000    -4.842000000     1.108000000
C     4.008000000    -4.683000000    -0.115000000
H     2.936000000    -4.562000000    -0.243000000
C    -1.415000000    -0.646000000    -0.650000000
H    -1.899000000    -0.590000000    -1.622000000
C    -0.316000000     0.180000000    -0.434000000
H     0.002000000     0.822000000    -1.252000000
C     0.306000000     0.192000000     0.862000000
H     1.112000000     0.990000000     1.000000000
C    -0.219000000    -0.672000000     1.806000000
H     0.209000000    -0.647000000     2.805000000
C    -1.361000000    -1.379000000     1.635000000
H    -1.736000000    -2.042000000     2.411000000
C    -1.955000000    -1.483000000     0.382000000
C    -3.166000000    -2.353000000     0.217000000
O    -3.827000000    -2.765000000     1.170000000
O    -3.371000000    -2.895000000    -0.881000000
O     0.748000000    -3.465000000     0.684000000
H     0.571000000    -3.971000000     1.476000000
H     0.443000000    -2.582000000     0.890000000
O    -9.410000000    -2.881000000     0.314000000
H    -9.209000000    -2.962000000     1.246000000
H    -8.601000000    -3.138000000    -0.129000000
O    -3.306000000    -4.771000000    -5.377000000
H    -3.993000000    -4.104000000    -5.350000000
H    -2.787000000    -4.612000000    -4.589000000
O    -5.478000000    -3.419000000    -2.327000000
H    -4.725000000    -3.268000000    -1.756000000
H    -5.737000000    -2.545000000    -2.619000000
O    -6.122000000    -3.716000000     2.151000000
H    -6.427000000    -2.833000000     2.358000000
H    -5.242000000    -3.589000000     1.796000000
O    -7.830000000    -4.837000000    -1.288000000
H    -8.309000000    -5.179000000    -2.043000000
H    -6.965000000    -4.615000000    -1.633000000
O    -2.387000000    -7.511000000     2.706000000
H    -1.764000000    -7.217000000     3.370000000
H    -3.235000000    -7.492000000     3.148000000
O    -3.419000000    -5.886000000     0.579000000
H    -3.312000000    -6.395000000     1.382000000
H    -3.491000000    -4.979000000     0.879000000
O    -2.051000000    -3.545000000    -3.031000000
H    -2.486000000    -3.473000000    -2.181000000
H    -1.154000000    -3.802000000    -2.819000000
O    -4.772000000    -4.932000000     5.352000000
H    -5.534000000    -4.580000000     5.812000000
H    -4.952000000    -5.869000000     5.273000000
O    -4.246000000    -5.968000000    -2.643000000
H    -4.837000000    -6.056000000    -3.391000000
H    -4.571000000    -5.202000000    -2.170000000
O     0.689000000    -4.954000000    -1.606000000
H    -0.042000000    -5.567000000    -1.525000000
H     0.648000000    -4.427000000    -0.808000000
O     0.815000000    -6.829000000     0.935000000
H     1.670000000    -6.650000000     1.326000000
H     0.184000000    -6.512000000     1.582000000
O    -3.039000000    -4.380000000     3.094000000
H    -3.648000000    -4.397000000     3.832000000
H    -3.363000000    -3.676000000     2.532000000
O    -1.694000000    -6.078000000    -1.602000000
H    -2.362000000    -5.860000000    -2.252000000
H    -2.111000000    -5.897000000    -0.760000000
O    -0.390000000    -4.874000000     2.710000000
H    -1.254000000    -4.469000000     2.638000000
H    -0.411000000    -5.338000000     3.547000000
O    -5.352000000    -7.706000000     2.061000000
H    -6.028000000    -7.049000000     1.898000000
H    -4.765000000    -7.638000000     1.308000000
O    -4.827000000    -7.980000000    -0.559000000
H    -5.714000000    -8.136000000    -0.886000000
H    -4.533000000    -7.200000000    -1.029000000
O    -7.506000000    -6.082000000     1.506000000
H    -7.413000000    -5.994000000     0.557000000
H    -7.159000000    -5.263000000     1.858000000
