215
-1441.39121
C    -4.880000000    -0.127000000     2.346000000
H    -5.089000000     0.678000000     1.646000000
C    -3.768000000     0.071000000     3.117000000
C    -3.496000000    -1.043000000     3.969000000
H    -2.696000000    -1.009000000     4.704000000
C    -2.815000000     1.221000000     2.993000000
O    -3.486000000     2.465000000     2.590000000
H    -2.119000000     0.809000000     2.248000000
O    -2.163000000     1.420000000     4.183000000
C    -0.816000000     1.683000000     4.080000000
C     0.059000000     0.695000000     4.492000000
H    -0.290000000    -0.334000000     4.524000000
C     1.452000000     0.792000000     4.288000000
O     2.179000000    -0.342000000     4.412000000
C     1.972000000     1.969000000     3.843000000
C     3.425000000     2.171000000     3.739000000
H     3.505000000     3.258000000     3.806000000
C     3.894000000     1.783000000     2.362000000
C     3.980000000     2.765000000     1.371000000
H     3.737000000     3.788000000     1.646000000
H     4.045000000     1.744000000     4.529000000
C     1.083000000     3.068000000     3.687000000
H     1.466000000     4.073000000     3.534000000
C    -0.259000000     2.945000000     3.908000000
C    -1.153000000     4.122000000     3.565000000
H    -0.696000000     5.043000000     3.932000000
H    -2.036000000     4.060000000     4.205000000
C    -1.618000000     4.045000000     2.124000000
C    -0.857000000     4.698000000     1.107000000
H     0.016000000     5.248000000     1.449000000
C    -2.800000000     3.316000000     1.746000000
C    -3.215000000     3.304000000     0.460000000
H    -4.080000000     2.663000000     0.309000000
C    -2.475000000     3.937000000    -0.549000000
O    -2.936000000     3.723000000    -1.855000000
C    -2.075000000     2.897000000    -2.673000000
C    -2.720000000     1.785000000    -3.491000000
C    -2.134000000     1.240000000    -4.648000000
H    -1.165000000     1.632000000    -4.947000000
C    -3.855000000     1.213000000    -2.986000000
H    -4.324000000     1.582000000    -2.077000000
O    -1.122000000     3.746000000    -3.416000000
H    -1.534000000     2.325000000    -1.906000000
C    -1.330000000     4.749000000    -0.249000000
C    -0.565000000     5.525000000    -1.241000000
H    -0.072000000     6.378000000    -0.771000000
H    -1.192000000     5.863000000    -2.069000000
C     0.524000000     4.620000000    -1.746000000
C     1.807000000     4.568000000    -1.265000000
H     2.157000000     5.143000000    -0.411000000
C     0.132000000     3.784000000    -2.839000000
C     1.125000000     2.921000000    -3.378000000
H     1.014000000     2.385000000    -4.317000000
C     2.452000000     2.925000000    -2.857000000
O     3.170000000     1.838000000    -3.253000000
C     3.265000000     0.675000000    -2.362000000
C     3.195000000    -0.583000000    -3.310000000
C     2.809000000    -0.581000000    -4.569000000
H     2.591000000     0.374000000    -5.039000000
C     3.519000000    -1.802000000    -2.655000000
H     3.651000000    -1.874000000    -1.579000000
O     4.504000000     0.614000000    -1.594000000
H     2.303000000     0.625000000    -1.831000000
C     2.763000000     3.742000000    -1.793000000
C     4.143000000     3.596000000    -1.004000000
H     4.469000000     4.551000000    -0.589000000
H     4.889000000     3.325000000    -1.754000000
C     4.203000000     2.439000000     0.016000000
C     4.461000000     1.073000000    -0.306000000
C     4.356000000     0.126000000     0.667000000
H     4.407000000    -0.918000000     0.367000000
C     4.297000000     0.479000000     2.031000000
O     4.076000000    -0.600000000     2.874000000
C     2.663000000    -0.975000000     3.171000000
H     2.066000000    -0.574000000     2.338000000
C     2.492000000    -2.499000000     3.178000000
C     1.403000000    -3.203000000     3.746000000
H     0.651000000    -2.636000000     4.289000000
C     3.478000000    -3.286000000     2.546000000
H     4.315000000    -2.770000000     2.085000000
C     3.309000000    -4.704000000     2.525000000
O     4.310000000    -5.385000000     1.906000000
C     2.259000000    -5.344000000     3.090000000
H     2.140000000    -6.415000000     2.943000000
C     1.230000000    -4.578000000     3.641000000
O     0.065000000    -5.128000000     4.094000000
C    -0.738000000    -4.523000000     5.026000000
C    -2.066000000    -4.191000000     4.664000000
H    -2.313000000    -4.119000000     3.607000000
C    -0.305000000    -4.210000000     6.296000000
H     0.702000000    -4.452000000     6.626000000
C    -1.183000000    -3.593000000     7.212000000
H    -0.813000000    -3.325000000     8.198000000
C    -2.494000000    -3.306000000     6.813000000
H    -3.133000000    -2.779000000     7.516000000
C    -2.881000000    -3.499000000     5.506000000
O    -4.170000000    -3.069000000     5.137000000
C    -4.370000000    -2.076000000     4.160000000
C    -5.493000000    -2.229000000     3.367000000
H    -6.133000000    -3.098000000     3.496000000
C    -5.728000000    -1.272000000     2.409000000
O    -6.774000000    -1.474000000     1.509000000
C    -6.888000000    -0.627000000     0.357000000
C    -6.182000000    -0.881000000    -0.790000000
H    -5.591000000    -1.781000000    -0.936000000
C    -7.640000000     0.557000000     0.419000000
H    -8.111000000     0.742000000     1.381000000
C    -7.818000000     1.375000000    -0.668000000
H    -8.504000000     2.217000000    -0.699000000
C    -7.024000000     1.081000000    -1.806000000
H    -7.046000000     1.645000000    -2.735000000
C    -6.186000000    -0.036000000    -1.859000000
O    -5.618000000    -0.396000000    -3.126000000
C    -4.389000000     0.106000000    -3.611000000
C    -3.842000000    -0.437000000    -4.809000000
H    -4.335000000    -1.245000000    -5.343000000
C    -2.770000000     0.240000000    -5.380000000
O    -2.271000000    -0.137000000    -6.602000000
C    -0.947000000     0.032000000    -7.005000000
C    -0.026000000    -0.960000000    -6.680000000
H    -0.406000000    -1.820000000    -6.135000000
C    -0.572000000     1.117000000    -7.821000000
H    -1.377000000     1.739000000    -8.204000000
C     0.785000000     1.129000000    -8.258000000
H     1.109000000     1.925000000    -8.925000000
C     1.711000000     0.180000000    -7.796000000
H     2.738000000     0.108000000    -8.146000000
C     1.300000000    -0.909000000    -7.038000000
O     2.302000000    -1.774000000    -6.626000000
C     2.719000000    -1.788000000    -5.284000000
C     2.929000000    -3.003000000    -4.613000000
H     2.635000000    -3.966000000    -5.022000000
C     3.382000000    -2.991000000    -3.273000000
O     3.435000000    -4.272000000    -2.649000000
C     4.342000000    -4.510000000    -1.624000000
C     5.724000000    -4.678000000    -1.927000000
H     6.066000000    -4.684000000    -2.959000000
C     6.615000000    -5.004000000    -0.907000000
H     7.697000000    -5.007000000    -1.011000000
C     6.142000000    -5.285000000     0.374000000
H     6.842000000    -5.514000000     1.173000000
C     4.779000000    -5.167000000     0.634000000
C     3.845000000    -4.869000000    -0.391000000
H     2.762000000    -4.809000000    -0.324000000
C    -1.276000000    -1.369000000    -2.069000000
H    -1.521000000    -1.510000000    -3.119000000
C    -0.139000000    -0.644000000    -1.707000000
H     0.513000000    -0.209000000    -2.460000000
C     0.220000000    -0.536000000    -0.378000000
H     1.177000000    -0.150000000    -0.087000000
C    -0.554000000    -1.160000000     0.607000000
H    -0.294000000    -1.062000000     1.658000000
C    -1.657000000    -1.902000000     0.234000000
H    -2.128000000    -2.457000000     1.041000000
C    -1.956000000    -2.040000000    -1.129000000
C    -2.964000000    -3.093000000    -1.542000000
O    -3.728000000    -3.586000000    -0.720000000
O    -3.005000000    -3.506000000    -2.661000000
O     0.273000000    -4.607000000    -0.053000000
H    -0.493000000    -4.827000000     0.478000000
H     0.351000000    -3.656000000     0.021000000
O    -9.075000000    -3.003000000    -1.470000000
H    -8.123000000    -2.913000000    -1.441000000
H    -9.223000000    -3.857000000    -1.877000000
O    -4.748000000    -6.121000000    -5.385000000
H    -5.681000000    -6.325000000    -5.331000000
H    -4.337000000    -6.705000000    -4.748000000
O    -6.082000000    -4.256000000     0.577000000
H    -5.414000000    -4.050000000    -0.077000000
H    -6.458000000    -3.408000000     0.811000000
O    -6.241000000    -3.583000000    -2.568000000
H    -6.392000000    -3.904000000    -3.458000000
H    -5.301000000    -3.697000000    -2.429000000
O    -5.345000000    -7.395000000    -0.190000000
H    -5.629000000    -6.628000000     0.307000000
H    -4.582000000    -7.092000000    -0.682000000
O    -8.543000000    -3.429000000    -5.074000000
H    -7.973000000    -2.677000000    -4.916000000
H    -9.073000000    -3.175000000    -5.829000000
O    -1.140000000    -4.994000000    -7.093000000
H    -1.128000000    -4.241000000    -7.684000000
H    -1.731000000    -4.734000000    -6.386000000
O    -2.252000000    -5.121000000     1.015000000
H    -2.940000000    -4.691000000     0.506000000
H    -2.717000000    -5.767000000     1.547000000
O    -1.253000000    -7.620000000    -0.595000000
H    -1.899000000    -8.321000000    -0.680000000
H    -1.774000000    -6.818000000    -0.550000000
O    -2.882000000    -4.090000000    -5.162000000
H    -2.967000000    -3.664000000    -4.310000000
H    -3.581000000    -4.743000000    -5.175000000
O     0.535000000    -7.190000000    -3.793000000
H     0.522000000    -6.288000000    -3.471000000
H    -0.242000000    -7.593000000    -3.407000000
O    -3.347000000    -8.132000000    -3.720000000
H    -3.161000000    -8.868000000    -3.136000000
H    -2.837000000    -8.319000000    -4.509000000
O    -3.423000000    -6.218000000    -1.781000000
H    -3.536000000    -6.791000000    -2.539000000
H    -3.329000000    -5.342000000    -2.154000000
O    -0.711000000    -4.674000000    -3.189000000
H    -1.573000000    -4.277000000    -3.316000000
H    -0.547000000    -4.595000000    -2.249000000
O    -3.749000000    -6.770000000     2.885000000
H    -3.341000000    -7.621000000     2.722000000
H    -4.085000000    -6.833000000     3.779000000
O     1.407000000    -7.165000000    -0.167000000
H     1.146000000    -6.251000000    -0.052000000
H     0.630000000    -7.593000000    -0.525000000
O    -6.905000000    -5.733000000     2.934000000
H    -6.651000000    -5.276000000     2.133000000
H    -6.075000000    -5.950000000     3.360000000
O    -7.074000000    -1.214000000    -5.106000000
H    -6.701000000    -0.832000000    -4.311000000
H    -7.391000000    -0.463000000    -5.607000000
