215
-1460.61526
C    -4.864000000    -0.486000000     1.580000000
H    -4.886000000     0.415000000     0.972000000
C    -3.999000000    -0.533000000     2.697000000
C    -3.856000000    -1.663000000     3.377000000
H    -3.080000000    -1.700000000     4.138000000
C    -3.145000000     0.751000000     2.928000000
O    -3.956000000     1.902000000     2.654000000
H    -2.251000000     0.700000000     2.289000000
O    -2.563000000     0.747000000     4.240000000
C    -1.241000000     1.125000000     4.438000000
C    -0.388000000     0.079000000     4.633000000
H    -0.778000000    -0.921000000     4.801000000
C     0.982000000     0.262000000     4.491000000
O     1.798000000    -0.848000000     4.425000000
C     1.507000000     1.540000000     4.281000000
C     3.013000000     1.825000000     4.279000000
H     3.155000000     2.841000000     4.655000000
C     3.601000000     1.643000000     2.870000000
C     3.700000000     2.741000000     2.070000000
H     3.398000000     3.703000000     2.476000000
H     3.582000000     1.149000000     4.920000000
C     0.641000000     2.627000000     4.144000000
H     0.986000000     3.646000000     3.991000000
C    -0.737000000     2.383000000     4.150000000
C    -1.730000000     3.559000000     3.902000000
H    -1.280000000     4.511000000     4.190000000
H    -2.616000000     3.525000000     4.539000000
C    -2.158000000     3.610000000     2.424000000
C    -1.439000000     4.459000000     1.652000000
H    -0.654000000     5.075000000     2.083000000
C    -3.249000000     2.832000000     1.907000000
C    -3.356000000     2.743000000     0.521000000
H    -4.013000000     2.019000000     0.045000000
C    -2.605000000     3.590000000    -0.348000000
O    -2.809000000     3.477000000    -1.686000000
C    -1.848000000     2.737000000    -2.416000000
C    -2.560000000     1.856000000    -3.468000000
C    -1.892000000     1.474000000    -4.670000000
H    -0.837000000     1.719000000    -4.758000000
C    -3.916000000     1.489000000    -3.295000000
H    -4.436000000     1.885000000    -2.427000000
O    -0.873000000     3.565000000    -3.008000000
H    -1.228000000     2.166000000    -1.710000000
C    -1.670000000     4.503000000     0.210000000
C    -0.785000000     5.310000000    -0.607000000
H    -0.457000000     6.126000000     0.040000000
H    -1.194000000     5.891000000    -1.436000000
C     0.428000000     4.580000000    -1.201000000
C     1.659000000     4.499000000    -0.514000000
H     1.611000000     5.049000000     0.422000000
C     0.333000000     3.857000000    -2.394000000
C     1.449000000     3.161000000    -2.927000000
H     1.302000000     2.523000000    -3.795000000
C     2.654000000     3.140000000    -2.205000000
O     3.636000000     2.264000000    -2.665000000
C     3.580000000     0.997000000    -1.901000000
C     3.671000000    -0.236000000    -2.804000000
C     2.860000000    -0.307000000    -3.951000000
H     2.210000000     0.517000000    -4.234000000
C     4.518000000    -1.324000000    -2.503000000
H     5.113000000    -1.235000000    -1.598000000
O     4.729000000     1.106000000    -1.058000000
H     2.691000000     0.884000000    -1.264000000
C     2.814000000     3.857000000    -1.010000000
C     4.087000000     3.768000000    -0.232000000
H     4.328000000     4.712000000     0.261000000
H     4.923000000     3.624000000    -0.920000000
C     4.053000000     2.560000000     0.700000000
C     4.441000000     1.298000000     0.249000000
C     4.464000000     0.220000000     1.100000000
H     4.613000000    -0.767000000     0.670000000
C     4.050000000     0.423000000     2.389000000
O     3.814000000    -0.766000000     3.092000000
C     2.447000000    -1.240000000     3.205000000
H     1.941000000    -0.850000000     2.310000000
C     2.379000000    -2.727000000     2.937000000
C     1.230000000    -3.433000000     3.345000000
H     0.426000000    -2.937000000     3.883000000
C     3.388000000    -3.429000000     2.137000000
H     4.302000000    -2.922000000     1.839000000
C     3.317000000    -4.804000000     1.998000000
O     4.407000000    -5.530000000     1.527000000
C     2.163000000    -5.410000000     2.388000000
H     2.054000000    -6.479000000     2.227000000
C     1.127000000    -4.767000000     3.025000000
O     0.083000000    -5.594000000     3.437000000
C    -0.910000000    -5.076000000     4.244000000
C    -2.154000000    -4.820000000     3.674000000
H    -2.314000000    -5.030000000     2.619000000
C    -0.674000000    -4.797000000     5.588000000
H     0.258000000    -5.081000000     6.069000000
C    -1.631000000    -4.073000000     6.325000000
H    -1.459000000    -3.762000000     7.352000000
C    -2.903000000    -3.810000000     5.737000000
H    -3.636000000    -3.261000000     6.322000000
C    -3.146000000    -4.234000000     4.412000000
O    -4.349000000    -4.008000000     3.789000000
C    -4.605000000    -2.802000000     3.110000000
C    -5.627000000    -2.685000000     2.172000000
H    -6.202000000    -3.562000000     1.886000000
C    -5.702000000    -1.536000000     1.318000000
O    -6.513000000    -1.570000000     0.182000000
C    -6.784000000    -0.548000000    -0.657000000
C    -6.210000000    -0.669000000    -1.999000000
H    -5.405000000    -1.378000000    -2.173000000
C    -7.807000000     0.418000000    -0.442000000
H    -8.341000000     0.482000000     0.502000000
C    -8.277000000     1.197000000    -1.476000000
H    -9.078000000     1.920000000    -1.343000000
C    -7.575000000     1.232000000    -2.714000000
H    -7.968000000     1.921000000    -3.458000000
C    -6.582000000     0.285000000    -2.956000000
O    -5.945000000     0.383000000    -4.129000000
C    -4.627000000     0.871000000    -4.309000000
C    -3.939000000     0.585000000    -5.481000000
H    -4.384000000     0.247000000    -6.414000000
C    -2.586000000     0.884000000    -5.660000000
O    -1.943000000     0.440000000    -6.760000000
C    -0.592000000     0.465000000    -6.888000000
C     0.116000000    -0.636000000    -6.520000000
H    -0.340000000    -1.571000000    -6.205000000
C     0.061000000     1.595000000    -7.354000000
H    -0.632000000     2.334000000    -7.746000000
C     1.461000000     1.658000000    -7.291000000
H     2.039000000     2.538000000    -7.560000000
C     2.197000000     0.497000000    -6.895000000
H     3.273000000     0.445000000    -7.042000000
C     1.483000000    -0.577000000    -6.362000000
O     2.208000000    -1.570000000    -5.891000000
C     2.988000000    -1.426000000    -4.755000000
C     3.820000000    -2.511000000    -4.430000000
H     3.751000000    -3.409000000    -5.038000000
C     4.554000000    -2.467000000    -3.272000000
O     5.048000000    -3.653000000    -2.904000000
C     5.414000000    -3.864000000    -1.588000000
C     6.697000000    -3.396000000    -1.221000000
H     7.228000000    -2.886000000    -2.021000000
C     7.137000000    -3.586000000     0.066000000
H     8.131000000    -3.254000000     0.357000000
C     6.372000000    -4.284000000     1.002000000
H     6.849000000    -4.468000000     1.962000000
C     5.185000000    -4.883000000     0.621000000
C     4.646000000    -4.625000000    -0.654000000
H     3.651000000    -5.008000000    -0.867000000
C    -0.409000000    -0.428000000    -1.951000000
H    -0.058000000    -0.343000000    -2.976000000
C     0.185000000     0.339000000    -0.924000000
H     0.839000000     1.156000000    -1.214000000
C    -0.042000000     0.011000000     0.408000000
H     0.519000000     0.442000000     1.219000000
C    -1.000000000    -0.889000000     0.682000000
H    -1.253000000    -0.997000000     1.734000000
C    -1.752000000    -1.520000000    -0.260000000
H    -2.505000000    -2.173000000     0.171000000
C    -1.464000000    -1.370000000    -1.640000000
C    -2.284000000    -2.120000000    -2.735000000
O    -3.189000000    -2.958000000    -2.476000000
O    -2.013000000    -1.952000000    -3.889000000
O     1.201000000    -3.208000000    -1.358000000
H     0.488000000    -3.696000000    -0.946000000
H     1.045000000    -2.298000000    -1.106000000
O    -8.403000000    -3.444000000    -2.279000000
H    -8.576000000    -4.382000000    -2.350000000
H    -7.458000000    -3.364000000    -2.404000000
O    -4.355000000    -6.026000000    -6.666000000
H    -4.141000000    -5.494000000    -7.433000000
H    -3.726000000    -5.751000000    -6.000000000
O    -4.091000000    -4.254000000    -8.698000000
H    -3.816000000    -4.414000000    -9.601000000
H    -3.539000000    -3.529000000    -8.404000000
O    -6.240000000    -5.364000000     0.338000000
H    -6.337000000    -5.790000000    -0.514000000
H    -7.115000000    -5.033000000     0.540000000
O    -5.733000000    -4.196000000    -3.392000000
H    -5.709000000    -3.812000000    -4.268000000
H    -4.994000000    -3.795000000    -2.935000000
O    -2.012000000    -1.446000000    -9.273000000
H    -1.975000000    -0.526000000    -9.534000000
H    -2.235000000    -1.422000000    -8.343000000
O    -5.800000000    -6.635000000    -2.094000000
H    -5.673000000    -5.912000000    -2.709000000
H    -5.070000000    -7.229000000    -2.268000000
O    -5.962000000    -3.304000000    -6.005000000
H    -6.401000000    -2.527000000    -6.351000000
H    -5.060000000    -3.022000000    -5.853000000
O    -0.987000000    -4.817000000    -0.790000000
H    -1.890000000    -4.515000000    -0.689000000
H    -1.002000000    -5.723000000    -0.481000000
O    -1.827000000    -6.964000000    -2.962000000
H    -1.269000000    -6.422000000    -2.404000000
H    -2.426000000    -7.397000000    -2.353000000
O    -2.890000000    -2.523000000    -6.359000000
H    -2.843000000    -3.377000000    -5.929000000
H    -2.663000000    -1.896000000    -5.672000000
O    -0.059000000    -5.224000000    -6.220000000
H    -0.508000000    -4.669000000    -6.857000000
H    -0.002000000    -4.685000000    -5.431000000
O    -0.086000000    -7.860000000    -5.078000000
H    -0.177000000    -7.131000000    -5.692000000
H    -0.762000000    -7.704000000    -4.419000000
O    -2.636000000    -4.785000000    -4.431000000
H    -2.347000000    -5.600000000    -4.019000000
H    -2.743000000    -4.174000000    -3.702000000
O     0.197000000    -3.632000000    -4.024000000
H    -0.498000000    -3.024000000    -4.276000000
H     0.282000000    -3.519000000    -3.077000000
O    -3.443000000    -4.671000000    -0.100000000
H    -4.323000000    -5.039000000    -0.029000000
H    -3.463000000    -4.156000000    -0.907000000
O     1.980000000    -5.690000000    -3.447000000
H     1.296000000    -5.199000000    -3.901000000
H     2.261000000    -5.110000000    -2.739000000
O    -3.282000000     4.387000000    -4.756000000
H    -2.828000000     3.725000000    -4.235000000
H    -4.209000000     4.168000000    -4.667000000
