215
-1448.44446
C    -4.476000000    -0.671000000     1.134000000
H    -4.624000000     0.132000000     0.416000000
C    -3.684000000    -0.502000000     2.265000000
C    -3.688000000    -1.519000000     3.241000000
H    -3.009000000    -1.532000000     4.090000000
C    -2.776000000     0.754000000     2.495000000
O    -3.625000000     1.862000000     2.118000000
H    -1.962000000     0.793000000     1.756000000
O    -2.354000000     0.864000000     3.956000000
C    -1.072000000     1.362000000     4.131000000
C    -0.185000000     0.297000000     4.286000000
H    -0.595000000    -0.689000000     4.488000000
C     1.159000000     0.624000000     4.297000000
O     2.005000000    -0.449000000     4.616000000
C     1.656000000     1.934000000     4.089000000
C     3.183000000     2.236000000     4.085000000
H     3.457000000     3.279000000     4.257000000
C     3.775000000     1.905000000     2.699000000
C     3.984000000     2.938000000     1.786000000
H     3.582000000     3.897000000     2.102000000
H     3.656000000     1.565000000     4.805000000
C     0.759000000     2.959000000     3.867000000
H     1.080000000     3.962000000     3.598000000
C    -0.640000000     2.681000000     3.891000000
C    -1.707000000     3.715000000     3.616000000
H    -1.389000000     4.689000000     3.994000000
H    -2.604000000     3.515000000     4.206000000
C    -2.081000000     3.736000000     2.096000000
C    -1.311000000     4.613000000     1.269000000
H    -0.687000000     5.320000000     1.810000000
C    -3.023000000     2.947000000     1.449000000
C    -3.305000000     3.114000000     0.106000000
H    -4.067000000     2.463000000    -0.316000000
C    -2.573000000     3.960000000    -0.658000000
O    -2.818000000     3.983000000    -2.014000000
C    -1.935000000     2.995000000    -2.698000000
C    -2.758000000     2.156000000    -3.690000000
C    -2.080000000     1.393000000    -4.555000000
H    -1.036000000     1.651000000    -4.712000000
C    -4.144000000     2.121000000    -3.636000000
H    -4.716000000     2.758000000    -2.967000000
O    -0.810000000     3.657000000    -3.268000000
H    -1.651000000     2.248000000    -1.943000000
C    -1.547000000     4.711000000    -0.087000000
C    -0.617000000     5.529000000    -0.975000000
H    -0.296000000     6.406000000    -0.408000000
H    -1.138000000     5.927000000    -1.848000000
C     0.528000000     4.572000000    -1.457000000
C     1.820000000     4.549000000    -0.822000000
H     1.872000000     5.176000000     0.065000000
C     0.403000000     3.711000000    -2.524000000
C     1.482000000     2.999000000    -3.053000000
H     1.448000000     2.281000000    -3.868000000
C     2.707000000     2.984000000    -2.400000000
O     3.627000000     2.103000000    -2.912000000
C     3.875000000     0.926000000    -2.085000000
C     4.086000000    -0.361000000    -2.868000000
C     3.304000000    -0.556000000    -3.964000000
H     2.778000000     0.308000000    -4.363000000
C     4.829000000    -1.452000000    -2.454000000
H     5.445000000    -1.230000000    -1.587000000
O     4.884000000     1.168000000    -1.171000000
H     2.947000000     0.739000000    -1.524000000
C     2.892000000     3.812000000    -1.280000000
C     4.291000000     3.846000000    -0.581000000
H     4.498000000     4.757000000    -0.016000000
H     5.036000000     3.693000000    -1.364000000
C     4.298000000     2.729000000     0.427000000
C     4.573000000     1.410000000     0.072000000
C     4.434000000     0.421000000     1.040000000
H     4.573000000    -0.634000000     0.816000000
C     4.135000000     0.588000000     2.340000000
O     3.917000000    -0.524000000     3.147000000
C     2.589000000    -0.925000000     3.404000000
H     2.018000000    -0.590000000     2.526000000
C     2.420000000    -2.454000000     3.362000000
C     1.352000000    -3.119000000     4.079000000
H     0.730000000    -2.509000000     4.729000000
C     3.331000000    -3.228000000     2.579000000
H     4.111000000    -2.764000000     1.980000000
C     3.172000000    -4.606000000     2.476000000
O     3.999000000    -5.387000000     1.790000000
C     2.027000000    -5.200000000     3.064000000
H     1.796000000    -6.248000000     2.891000000
C     1.114000000    -4.498000000     3.848000000
O    -0.066000000    -5.208000000     4.133000000
C    -1.145000000    -4.701000000     4.775000000
C    -2.252000000    -4.264000000     4.127000000
H    -2.213000000    -4.309000000     3.042000000
C    -1.202000000    -4.711000000     6.172000000
H    -0.256000000    -4.880000000     6.680000000
C    -2.337000000    -4.322000000     6.896000000
H    -2.400000000    -4.281000000     7.981000000
C    -3.432000000    -3.812000000     6.147000000
H    -4.393000000    -3.588000000     6.604000000
C    -3.399000000    -3.897000000     4.770000000
O    -4.550000000    -3.651000000     4.034000000
C    -4.536000000    -2.639000000     3.122000000
C    -5.259000000    -2.785000000     1.944000000
H    -5.956000000    -3.618000000     1.910000000
C    -5.254000000    -1.831000000     0.954000000
O    -6.125000000    -1.976000000    -0.123000000
C    -6.656000000    -0.842000000    -0.782000000
C    -6.069000000    -0.465000000    -1.957000000
H    -5.253000000    -1.033000000    -2.398000000
C    -7.823000000    -0.277000000    -0.257000000
H    -8.226000000    -0.515000000     0.724000000
C    -8.540000000     0.536000000    -1.145000000
H    -9.527000000     0.867000000    -0.830000000
C    -8.067000000     0.786000000    -2.447000000
H    -8.707000000     1.269000000    -3.181000000
C    -6.734000000     0.414000000    -2.796000000
O    -6.213000000     0.909000000    -3.993000000
C    -4.869000000     1.093000000    -4.251000000
C    -4.144000000     0.284000000    -5.154000000
H    -4.799000000    -0.263000000    -5.827000000
C    -2.756000000     0.432000000    -5.332000000
O    -2.081000000    -0.222000000    -6.371000000
C    -0.754000000    -0.090000000    -6.667000000
C     0.174000000    -0.883000000    -5.974000000
H    -0.208000000    -1.670000000    -5.328000000
C    -0.260000000     0.801000000    -7.647000000
H    -0.935000000     1.425000000    -8.227000000
C     1.109000000     0.787000000    -7.922000000
H     1.407000000     1.340000000    -8.809000000
C     1.972000000    -0.024000000    -7.290000000
H     2.980000000    -0.170000000    -7.671000000
C     1.505000000    -0.899000000    -6.326000000
O     2.333000000    -1.916000000    -5.771000000
C     3.262000000    -1.689000000    -4.742000000
C     3.962000000    -2.798000000    -4.284000000
H     3.841000000    -3.710000000    -4.863000000
C     4.711000000    -2.714000000    -3.109000000
O     5.270000000    -3.927000000    -2.567000000
C     5.509000000    -4.030000000    -1.225000000
C     6.668000000    -3.509000000    -0.689000000
H     7.406000000    -3.008000000    -1.310000000
C     6.985000000    -3.679000000     0.653000000
H     7.952000000    -3.319000000     0.995000000
C     6.151000000    -4.372000000     1.482000000
H     6.316000000    -4.451000000     2.554000000
C     4.942000000    -4.914000000     1.000000000
C     4.638000000    -4.747000000    -0.377000000
H     3.659000000    -5.110000000    -0.679000000
C    -1.709000000    -1.375000000    -2.042000000
H    -2.007000000    -1.325000000    -3.087000000
C    -0.845000000    -0.372000000    -1.620000000
H    -0.452000000     0.310000000    -2.370000000
C    -0.356000000    -0.418000000    -0.284000000
H     0.388000000     0.281000000     0.064000000
C    -0.816000000    -1.487000000     0.566000000
H    -0.438000000    -1.530000000     1.584000000
C    -1.715000000    -2.416000000     0.098000000
H    -1.984000000    -3.219000000     0.779000000
C    -2.159000000    -2.371000000    -1.221000000
C    -3.005000000    -3.522000000    -1.721000000
O    -3.654000000    -4.191000000    -0.960000000
O    -2.866000000    -3.931000000    -2.857000000
O     0.933000000    -4.405000000    -1.444000000
H     0.568000000    -4.965000000    -0.759000000
H     1.556000000    -3.840000000    -0.986000000
O    -3.848000000    -6.081000000    -4.339000000
H    -4.720000000    -6.269000000    -3.991000000
H    -3.448000000    -5.508000000    -3.685000000
O    -3.113000000    -8.288000000     1.165000000
H    -3.108000000    -9.105000000     0.667000000
H    -2.431000000    -8.406000000     1.826000000
O    -6.030000000    -3.894000000    -2.241000000
H    -6.354000000    -3.491000000    -1.435000000
H    -5.168000000    -4.238000000    -2.006000000
O    -7.382000000    -6.606000000    -1.468000000
H    -6.442000000    -6.428000000    -1.453000000
H    -7.659000000    -6.511000000    -0.557000000
O    -0.265000000    -6.103000000     0.260000000
H    -1.035000000    -5.961000000     0.810000000
H     0.219000000    -6.801000000     0.701000000
O    -1.822000000    -7.177000000    -1.722000000
H    -1.730000000    -6.571000000    -2.456000000
H    -1.268000000    -6.807000000    -1.034000000
O    -4.826000000    -2.708000000    -4.410000000
H    -5.536000000    -3.204000000    -4.002000000
H    -4.029000000    -3.157000000    -4.130000000
O    -2.022000000    -6.342000000    -6.564000000
H    -2.800000000    -6.060000000    -6.083000000
H    -1.997000000    -5.774000000    -7.334000000
O    -4.533000000    -6.524000000    -1.346000000
H    -3.760000000    -7.085000000    -1.409000000
H    -4.187000000    -5.664000000    -1.108000000
O    -0.110000000    -5.230000000    -3.686000000
H    -0.918000000    -4.727000000    -3.784000000
H     0.332000000    -4.830000000    -2.937000000
O    -2.898000000    -5.682000000     1.239000000
H    -3.133000000    -6.606000000     1.154000000
H    -3.206000000    -5.280000000     0.427000000
O     0.491000000    -5.279000000    -6.513000000
H    -0.249000000    -5.884000000    -6.455000000
H     0.728000000    -5.103000000    -5.602000000
O    -7.526000000    -4.101000000    -6.163000000
H    -7.285000000    -3.656000000    -5.350000000
H    -6.770000000    -3.978000000    -6.737000000
O    -5.320000000    -5.943000000     2.828000000
H    -5.281000000    -5.131000000     3.333000000
H    -4.545000000    -5.913000000     2.267000000
O    -1.498000000    -9.793000000    -1.210000000
H    -1.545000000    -8.837000000    -1.219000000
H    -0.936000000    -9.999000000    -0.463000000
O     0.600000000    -7.751000000    -4.098000000
H     0.009000000    -8.235000000    -3.521000000
H     0.233000000    -6.867000000    -4.130000000
O    -5.551000000    -9.274000000    -0.681000000
H    -5.538000000    -8.383000000    -1.030000000
H    -6.475000000    -9.447000000    -0.499000000
O    -5.188000000    -3.641000000    -7.169000000
H    -4.883000000    -3.021000000    -7.832000000
H    -4.622000000    -3.481000000    -6.414000000
