215
-1457.46772
C    -4.291000000    -0.878000000     1.042000000
H    -4.269000000    -0.178000000     0.211000000
C    -3.792000000    -0.545000000     2.267000000
C    -3.932000000    -1.480000000     3.260000000
H    -3.472000000    -1.209000000     4.207000000
C    -3.072000000     0.801000000     2.432000000
O    -3.791000000     1.839000000     1.863000000
H    -2.119000000     0.786000000     1.883000000
O    -2.768000000     1.113000000     3.785000000
C    -1.487000000     1.482000000     4.111000000
C    -0.558000000     0.517000000     4.538000000
H    -0.886000000    -0.508000000     4.689000000
C     0.814000000     0.822000000     4.563000000
O     1.597000000    -0.245000000     4.655000000
C     1.237000000     2.103000000     4.227000000
C     2.749000000     2.389000000     4.257000000
H     2.934000000     3.429000000     4.532000000
C     3.347000000     2.039000000     2.941000000
C     3.404000000     3.028000000     1.986000000
H     3.084000000     4.048000000     2.185000000
H     3.223000000     1.852000000     5.082000000
C     0.365000000     3.087000000     3.932000000
H     0.797000000     4.069000000     3.756000000
C    -1.004000000     2.780000000     3.801000000
C    -2.052000000     3.806000000     3.345000000
H    -1.878000000     4.862000000     3.564000000
H    -2.974000000     3.476000000     3.828000000
C    -2.206000000     3.739000000     1.880000000
C    -1.480000000     4.569000000     1.069000000
H    -0.734000000     5.204000000     1.539000000
C    -3.190000000     2.882000000     1.262000000
C    -3.397000000     2.996000000    -0.102000000
H    -4.124000000     2.324000000    -0.550000000
C    -2.671000000     3.929000000    -0.853000000
O    -2.866000000     3.763000000    -2.217000000
C    -1.874000000     2.870000000    -2.827000000
C    -2.621000000     1.957000000    -3.784000000
C    -1.821000000     1.277000000    -4.687000000
H    -0.742000000     1.398000000    -4.739000000
C    -3.933000000     1.558000000    -3.672000000
H    -4.504000000     1.986000000    -2.851000000
O    -0.887000000     3.712000000    -3.484000000
H    -1.428000000     2.238000000    -2.044000000
C    -1.639000000     4.666000000    -0.327000000
C    -0.787000000     5.548000000    -1.205000000
H    -0.445000000     6.438000000    -0.672000000
H    -1.282000000     5.904000000    -2.111000000
C     0.312000000     4.632000000    -1.611000000
C     1.481000000     4.703000000    -0.856000000
H     1.448000000     5.342000000     0.023000000
C     0.240000000     3.885000000    -2.748000000
C     1.252000000     2.950000000    -3.064000000
H     1.209000000     2.346000000    -3.968000000
C     2.380000000     2.996000000    -2.312000000
O     3.344000000     2.043000000    -2.653000000
C     3.600000000     0.948000000    -1.729000000
C     3.920000000    -0.246000000    -2.609000000
C     3.164000000    -0.476000000    -3.719000000
H     2.341000000     0.184000000    -3.981000000
C     4.916000000    -1.159000000    -2.324000000
H     5.661000000    -0.862000000    -1.590000000
O     4.737000000     1.305000000    -0.870000000
H     2.655000000     0.693000000    -1.228000000
C     2.542000000     3.904000000    -1.224000000
C     3.814000000     3.892000000    -0.352000000
H     3.741000000     4.738000000     0.334000000
H     4.760000000     3.829000000    -0.894000000
C     3.877000000     2.768000000     0.697000000
C     4.338000000     1.483000000     0.437000000
C     4.271000000     0.443000000     1.372000000
H     4.468000000    -0.592000000     1.104000000
C     3.745000000     0.740000000     2.623000000
O     3.560000000    -0.330000000     3.506000000
C     2.198000000    -0.746000000     3.496000000
H     1.729000000    -0.268000000     2.623000000
C     2.220000000    -2.255000000     3.423000000
C     1.091000000    -3.039000000     3.885000000
H     0.338000000    -2.547000000     4.495000000
C     3.219000000    -2.929000000     2.683000000
H     3.873000000    -2.316000000     2.068000000
C     3.058000000    -4.270000000     2.488000000
O     3.819000000    -4.985000000     1.617000000
C     2.036000000    -5.026000000     3.081000000
H     1.883000000    -6.072000000     2.828000000
C     1.080000000    -4.383000000     3.791000000
O     0.095000000    -5.117000000     4.455000000
C    -0.990000000    -4.613000000     5.041000000
C    -2.116000000    -4.332000000     4.252000000
H    -1.986000000    -4.413000000     3.176000000
C    -1.193000000    -4.570000000     6.477000000
H    -0.314000000    -4.756000000     7.088000000
C    -2.410000000    -4.327000000     7.054000000
H    -2.528000000    -4.318000000     8.134000000
C    -3.548000000    -4.071000000     6.209000000
H    -4.431000000    -3.638000000     6.672000000
C    -3.339000000    -4.042000000     4.795000000
O    -4.513000000    -3.652000000     4.067000000
C    -4.591000000    -2.668000000     3.076000000
C    -5.076000000    -3.026000000     1.860000000
H    -5.624000000    -3.954000000     1.722000000
C    -4.949000000    -2.066000000     0.818000000
O    -5.478000000    -2.296000000    -0.398000000
C    -6.200000000    -1.404000000    -1.128000000
C    -5.658000000    -0.977000000    -2.347000000
H    -4.725000000    -1.440000000    -2.657000000
C    -7.471000000    -0.933000000    -0.699000000
H    -7.935000000    -1.220000000     0.241000000
C    -8.069000000     0.021000000    -1.532000000
H    -9.086000000     0.371000000    -1.378000000
C    -7.546000000     0.394000000    -2.824000000
H    -8.162000000     0.886000000    -3.572000000
C    -6.291000000    -0.113000000    -3.207000000
O    -5.809000000     0.239000000    -4.456000000
C    -4.490000000     0.615000000    -4.569000000
C    -3.762000000     0.152000000    -5.621000000
H    -4.202000000    -0.539000000    -6.335000000
C    -2.400000000     0.411000000    -5.614000000
O    -1.686000000    -0.068000000    -6.674000000
C    -0.299000000    -0.064000000    -6.844000000
C     0.504000000    -1.000000000    -6.151000000
H     0.056000000    -1.709000000    -5.459000000
C     0.259000000     0.904000000    -7.637000000
H    -0.405000000     1.662000000    -8.044000000
C     1.631000000     0.875000000    -7.847000000
H     2.096000000     1.597000000    -8.513000000
C     2.493000000     0.049000000    -7.130000000
H     3.562000000     0.018000000    -7.324000000
C     1.901000000    -0.912000000    -6.273000000
O     2.703000000    -1.843000000    -5.655000000
C     3.417000000    -1.588000000    -4.502000000
C     4.260000000    -2.593000000    -4.138000000
H     4.269000000    -3.502000000    -4.733000000
C     4.955000000    -2.411000000    -2.938000000
O     5.754000000    -3.441000000    -2.457000000
C     5.930000000    -3.727000000    -1.108000000
C     7.126000000    -3.523000000    -0.415000000
H     7.976000000    -3.134000000    -0.971000000
C     7.252000000    -3.831000000     0.969000000
H     8.195000000    -3.747000000     1.502000000
C     6.117000000    -4.285000000     1.694000000
H     6.170000000    -4.447000000     2.767000000
C     4.931000000    -4.493000000     0.968000000
C     4.837000000    -4.315000000    -0.409000000
H     3.920000000    -4.612000000    -0.913000000
C    -1.536000000    -1.876000000    -1.617000000
H    -1.560000000    -1.934000000    -2.702000000
C    -0.748000000    -0.860000000    -1.008000000
H    -0.288000000    -0.111000000    -1.647000000
C    -0.619000000    -0.798000000     0.374000000
H    -0.080000000     0.061000000     0.904000000
C    -1.111000000    -1.888000000     1.063000000
H    -1.031000000    -1.888000000     2.147000000
C    -1.825000000    -2.921000000     0.491000000
H    -2.329000000    -3.661000000     1.108000000
C    -2.073000000    -2.933000000    -0.792000000
C    -2.817000000    -4.076000000    -1.459000000
O    -2.749000000    -5.185000000    -0.967000000
O    -3.316000000    -3.994000000    -2.591000000
O     1.550000000    -3.332000000    -0.369000000
H     1.740000000    -3.755000000     0.469000000
H     0.758000000    -2.821000000    -0.205000000
O    -3.281000000    -6.231000000    -3.927000000
H    -2.393000000    -6.301000000    -4.278000000
H    -3.244000000    -5.485000000    -3.328000000
O     0.196000000    -7.627000000     0.412000000
H     0.281000000    -8.093000000     1.243000000
H     1.079000000    -7.631000000     0.043000000
O    -6.247000000    -4.433000000    -2.193000000
H    -6.430000000    -4.242000000    -1.273000000
H    -5.292000000    -4.414000000    -2.256000000
O    -4.618000000    -7.161000000    -0.783000000
H    -3.792000000    -6.679000000    -0.803000000
H    -5.133000000    -6.726000000    -0.103000000
O    -3.496000000    -9.007000000    -3.567000000
H    -3.748000000    -9.190000000    -2.661000000
H    -3.005000000    -8.187000000    -3.517000000
O     1.268000000    -3.434000000    -3.095000000
H     1.950000000    -4.101000000    -3.177000000
H     1.386000000    -3.079000000    -2.214000000
O    -4.296000000    -3.816000000    -5.034000000
H    -4.000000000    -3.763000000    -4.125000000
H    -3.495000000    -3.733000000    -5.552000000
O    -8.806000000    -3.366000000    -2.787000000
H    -7.856000000    -3.396000000    -2.900000000
H    -8.943000000    -3.562000000    -1.860000000
O    -3.735000000    -6.759000000    -6.580000000
H    -3.926000000    -6.811000000    -5.643000000
H    -3.989000000    -7.616000000    -6.924000000
O    -7.083000000    -7.649000000    -1.941000000
H    -6.914000000    -6.833000000    -2.412000000
H    -6.418000000    -7.670000000    -1.254000000
O    -1.107000000    -7.190000000    -2.123000000
H    -0.598000000    -7.404000000    -1.341000000
H    -1.749000000    -6.548000000    -1.823000000
O    -0.891000000    -4.132000000    -4.288000000
H    -1.471000000    -3.672000000    -3.681000000
H    -0.029000000    -4.089000000    -3.875000000
O    -2.077000000    -6.192000000     1.374000000
H    -1.233000000    -6.643000000     1.329000000
H    -2.129000000    -5.698000000     0.556000000
O    -1.932000000    -4.237000000    -6.685000000
H    -2.282000000    -5.128000000    -6.668000000
H    -1.456000000    -4.151000000    -5.859000000
O    -3.514000000    -7.262000000     3.564000000
H    -4.466000000    -7.284000000     3.470000000
H    -3.220000000    -6.659000000     2.882000000
O    -0.549000000    -8.117000000    -4.550000000
H    -0.835000000    -7.623000000    -3.782000000
H     0.296000000    -8.487000000    -4.296000000
O    -6.704000000    -5.830000000    -4.611000000
H    -6.619000000    -5.293000000    -3.823000000
H    -5.915000000    -5.637000000    -5.118000000
O    -6.709000000    -6.433000000     0.966000000
H    -6.838000000    -5.931000000     1.770000000
H    -7.594000000    -6.610000000     0.648000000
