215
-1456.92875
C    -5.425000000    -0.577000000     1.411000000
H    -5.635000000     0.283000000     0.780000000
C    -4.322000000    -0.663000000     2.297000000
C    -4.166000000    -1.771000000     3.150000000
H    -3.401000000    -1.754000000     3.923000000
C    -3.557000000     0.647000000     2.629000000
O    -4.249000000     1.929000000     2.293000000
H    -2.747000000     0.545000000     1.891000000
O    -3.040000000     0.691000000     3.934000000
C    -1.712000000     0.998000000     4.194000000
C    -0.817000000    -0.042000000     4.438000000
H    -1.125000000    -1.085000000     4.445000000
C     0.495000000     0.259000000     4.580000000
O     1.415000000    -0.802000000     4.713000000
C     0.973000000     1.570000000     4.537000000
C     2.426000000     1.903000000     4.503000000
H     2.594000000     2.913000000     4.883000000
C     3.105000000     1.702000000     3.139000000
C     3.121000000     2.830000000     2.241000000
H     2.899000000     3.806000000     2.665000000
H     2.849000000     1.252000000     5.272000000
C     0.055000000     2.637000000     4.341000000
H     0.406000000     3.662000000     4.263000000
C    -1.299000000     2.332000000     4.118000000
C    -2.224000000     3.475000000     3.805000000
H    -1.986000000     4.453000000     4.230000000
H    -3.196000000     3.273000000     4.259000000
C    -2.450000000     3.550000000     2.223000000
C    -1.652000000     4.391000000     1.440000000
H    -1.054000000     5.105000000     2.000000000
C    -3.504000000     2.861000000     1.623000000
C    -3.625000000     2.887000000     0.246000000
H    -4.365000000     2.264000000    -0.248000000
C    -2.834000000     3.681000000    -0.587000000
O    -2.942000000     3.432000000    -1.932000000
C    -1.782000000     2.832000000    -2.560000000
C    -2.148000000     1.770000000    -3.542000000
C    -1.382000000     1.521000000    -4.654000000
H    -0.543000000     2.149000000    -4.941000000
C    -3.187000000     0.897000000    -3.171000000
H    -3.777000000     1.079000000    -2.277000000
O    -0.940000000     3.800000000    -3.179000000
H    -1.321000000     2.305000000    -1.712000000
C    -1.820000000     4.464000000     0.052000000
C    -1.052000000     5.442000000    -0.761000000
H    -0.767000000     6.165000000     0.006000000
H    -1.723000000     5.947000000    -1.459000000
C     0.212000000     4.776000000    -1.311000000
C     1.368000000     4.704000000    -0.495000000
H     1.363000000     5.294000000     0.417000000
C     0.213000000     4.022000000    -2.450000000
C     1.387000000     3.436000000    -2.939000000
H     1.299000000     2.962000000    -3.913000000
C     2.537000000     3.303000000    -2.082000000
O     3.604000000     2.459000000    -2.458000000
C     3.795000000     1.187000000    -1.777000000
C     4.215000000     0.102000000    -2.743000000
C     3.871000000     0.296000000    -4.111000000
H     3.393000000     1.239000000    -4.363000000
C     4.773000000    -1.021000000    -2.273000000
H     4.981000000    -1.099000000    -1.209000000
O     4.740000000     1.283000000    -0.650000000
H     2.882000000     0.835000000    -1.274000000
C     2.483000000     3.935000000    -0.806000000
C     3.755000000     3.797000000     0.053000000
H     3.937000000     4.670000000     0.682000000
H     4.608000000     3.729000000    -0.626000000
C     3.698000000     2.667000000     1.039000000
C     4.193000000     1.419000000     0.613000000
C     4.194000000     0.329000000     1.468000000
H     4.553000000    -0.652000000     1.165000000
C     3.675000000     0.487000000     2.753000000
O     3.506000000    -0.611000000     3.511000000
C     2.155000000    -1.123000000     3.534000000
H     1.648000000    -0.556000000     2.739000000
C     2.207000000    -2.651000000     3.230000000
C     1.177000000    -3.483000000     3.727000000
H     0.415000000    -3.106000000     4.405000000
C     3.158000000    -3.230000000     2.363000000
H     4.036000000    -2.666000000     2.056000000
C     2.962000000    -4.491000000     1.915000000
O     3.987000000    -5.131000000     1.218000000
C     1.947000000    -5.323000000     2.412000000
H     1.863000000    -6.353000000     2.075000000
C     0.988000000    -4.759000000     3.201000000
O    -0.047000000    -5.548000000     3.612000000
C    -1.076000000    -5.041000000     4.332000000
C    -2.311000000    -4.743000000     3.685000000
H    -2.483000000    -4.944000000     2.631000000
C    -1.088000000    -4.852000000     5.686000000
H    -0.164000000    -5.066000000     6.216000000
C    -2.189000000    -4.425000000     6.429000000
H    -2.098000000    -4.215000000     7.492000000
C    -3.338000000    -4.009000000     5.709000000
H    -4.199000000    -3.611000000     6.240000000
C    -3.409000000    -4.207000000     4.335000000
O    -4.622000000    -3.995000000     3.694000000
C    -4.951000000    -2.929000000     2.941000000
C    -6.018000000    -2.913000000     2.035000000
H    -6.655000000    -3.788000000     1.927000000
C    -6.189000000    -1.749000000     1.278000000
O    -7.244000000    -1.711000000     0.389000000
C    -7.060000000    -1.286000000    -0.914000000
C    -5.850000000    -1.507000000    -1.548000000
H    -5.123000000    -2.230000000    -1.187000000
C    -8.004000000    -0.414000000    -1.463000000
H    -8.940000000    -0.284000000    -0.925000000
C    -7.709000000     0.254000000    -2.655000000
H    -8.356000000     1.007000000    -3.098000000
C    -6.553000000     0.045000000    -3.316000000
H    -6.456000000     0.627000000    -4.229000000
C    -5.652000000    -0.854000000    -2.820000000
O    -4.497000000    -1.135000000    -3.531000000
C    -3.510000000    -0.182000000    -3.980000000
C    -2.707000000    -0.434000000    -5.101000000
H    -2.941000000    -1.295000000    -5.722000000
C    -1.717000000     0.445000000    -5.499000000
O    -0.925000000     0.067000000    -6.501000000
C     0.306000000     0.523000000    -6.780000000
C     1.418000000    -0.290000000    -6.503000000
H     1.370000000    -1.261000000    -6.016000000
C     0.534000000     1.827000000    -7.344000000
H    -0.303000000     2.485000000    -7.560000000
C     1.797000000     2.246000000    -7.733000000
H     1.985000000     3.201000000    -8.219000000
C     2.852000000     1.393000000    -7.415000000
H     3.874000000     1.719000000    -7.594000000
C     2.666000000     0.140000000    -6.831000000
O     3.718000000    -0.663000000    -6.393000000
C     4.078000000    -0.791000000    -5.019000000
C     4.620000000    -1.976000000    -4.470000000
H     4.563000000    -2.854000000    -5.109000000
C     5.029000000    -2.116000000    -3.160000000
O     5.659000000    -3.292000000    -2.806000000
C     5.792000000    -3.595000000    -1.478000000
C     6.918000000    -3.125000000    -0.790000000
H     7.691000000    -2.588000000    -1.334000000
C     7.137000000    -3.373000000     0.554000000
H     8.028000000    -3.067000000     1.097000000
C     6.168000000    -4.013000000     1.251000000
H     6.234000000    -4.093000000     2.333000000
C     4.983000000    -4.449000000     0.593000000
C     4.731000000    -4.146000000    -0.760000000
H     3.897000000    -4.568000000    -1.316000000
C    -0.458000000    -0.843000000    -1.828000000
H    -0.233000000    -1.151000000    -2.846000000
C     0.322000000     0.190000000    -1.257000000
H     0.925000000     0.837000000    -1.889000000
C     0.144000000     0.419000000     0.083000000
H     0.681000000     1.299000000     0.607000000
C    -0.714000000    -0.287000000     0.882000000
H    -0.716000000    -0.044000000     1.942000000
C    -1.418000000    -1.360000000     0.362000000
H    -1.942000000    -2.082000000     0.983000000
C    -1.231000000    -1.700000000    -1.012000000
C    -1.903000000    -2.863000000    -1.580000000
O    -2.498000000    -3.640000000    -0.875000000
O    -1.670000000    -3.216000000    -2.690000000
O     1.164000000    -5.179000000    -0.638000000
H     1.603000000    -5.236000000    -1.486000000
H     1.534000000    -4.397000000    -0.229000000
O     1.928000000    -2.547000000    -0.289000000
H     2.567000000    -2.615000000     0.420000000
H     1.370000000    -1.810000000    -0.039000000
O    -6.406000000    -3.711000000    -5.360000000
H    -6.093000000    -4.132000000    -6.160000000
H    -5.694000000    -3.831000000    -4.731000000
O    -1.271000000    -5.945000000    -2.808000000
H    -1.081000000    -6.485000000    -2.041000000
H    -1.452000000    -5.076000000    -2.450000000
O    -3.286000000    -7.595000000     1.788000000
H    -4.161000000    -7.248000000     1.617000000
H    -2.692000000    -6.935000000     1.429000000
O    -4.335000000    -5.708000000    -0.867000000
H    -4.116000000    -6.110000000    -1.708000000
H    -3.670000000    -5.030000000    -0.745000000
O    -6.011000000    -6.987000000     1.028000000
H    -5.525000000    -6.449000000     0.404000000
H    -6.488000000    -7.614000000     0.484000000
O     1.181000000    -3.314000000    -2.892000000
H     0.244000000    -3.122000000    -2.848000000
H     1.512000000    -3.093000000    -2.021000000
O    -0.890000000    -5.047000000    -5.530000000
H    -0.961000000    -5.276000000    -4.603000000
H    -0.061000000    -4.573000000    -5.596000000
O    -0.262000000    -8.471000000    -4.744000000
H    -0.282000000    -7.611000000    -5.165000000
H     0.255000000    -8.337000000    -3.950000000
O    -2.853000000    -4.267000000    -7.251000000
H    -2.268000000    -4.718000000    -6.643000000
H    -2.317000000    -3.565000000    -7.622000000
O    -6.978000000    -7.320000000    -3.489000000
H    -7.400000000    -7.810000000    -4.195000000
H    -6.251000000    -6.865000000    -3.914000000
O    -6.973000000    -4.566000000    -1.151000000
H    -6.760000000    -3.684000000    -1.458000000
H    -6.130000000    -5.018000000    -1.117000000
O    -0.100000000    -7.484000000    -0.806000000
H     0.550000000    -8.006000000    -1.275000000
H     0.298000000    -6.617000000    -0.731000000
O     1.836000000    -4.565000000    -5.173000000
H     2.234000000    -3.970000000    -5.809000000
H     1.747000000    -4.040000000    -4.377000000
O    -1.752000000    -5.638000000     0.587000000
H    -0.835000000    -5.699000000     0.320000000
H    -2.082000000    -4.861000000     0.136000000
O    -2.593000000    -8.982000000    -0.711000000
H    -1.814000000    -8.455000000    -0.892000000
H    -2.764000000    -8.844000000     0.220000000
O    -3.707000000    -3.976000000    -4.692000000
H    -3.050000000    -3.668000000    -4.068000000
H    -3.302000000    -3.850000000    -5.550000000
O    -4.083000000    -6.824000000    -3.291000000
H    -3.924000000    -5.985000000    -3.724000000
H    -3.529000000    -7.446000000    -3.764000000
