215
-1418.45963
C    -4.463000000    -1.016000000     0.925000000
H    -4.324000000    -0.349000000     0.078000000
C    -3.986000000    -0.530000000     2.135000000
C    -3.874000000    -1.456000000     3.171000000
H    -3.461000000    -1.148000000     4.129000000
C    -3.271000000     0.805000000     2.252000000
O    -4.087000000     1.885000000     1.776000000
H    -2.381000000     0.738000000     1.609000000
O    -2.913000000     1.167000000     3.646000000
C    -1.691000000     1.696000000     3.816000000
C    -0.786000000     0.874000000     4.426000000
H    -1.051000000    -0.175000000     4.537000000
C     0.527000000     1.243000000     4.551000000
O     1.447000000     0.220000000     4.779000000
C     0.976000000     2.528000000     4.206000000
C     2.462000000     2.924000000     4.092000000
H     2.357000000     4.003000000     4.220000000
C     3.130000000     2.665000000     2.789000000
C     3.165000000     3.582000000     1.771000000
H     2.723000000     4.564000000     1.915000000
H     3.083000000     2.536000000     4.902000000
C     0.030000000     3.380000000     3.746000000
H     0.434000000     4.356000000     3.489000000
C    -1.349000000     3.037000000     3.626000000
C    -2.348000000     3.983000000     2.953000000
H    -2.044000000     5.017000000     3.134000000
H    -3.327000000     3.792000000     3.397000000
C    -2.568000000     3.760000000     1.486000000
C    -1.854000000     4.610000000     0.576000000
H    -1.076000000     5.237000000     1.005000000
C    -3.510000000     2.873000000     0.955000000
C    -3.721000000     2.888000000    -0.474000000
H    -4.442000000     2.183000000    -0.881000000
C    -2.995000000     3.665000000    -1.344000000
O    -3.108000000     3.548000000    -2.673000000
C    -2.074000000     2.724000000    -3.260000000
C    -2.668000000     1.707000000    -4.262000000
C    -1.869000000     1.037000000    -5.199000000
H    -0.813000000     1.297000000    -5.199000000
C    -3.975000000     1.233000000    -4.034000000
H    -4.562000000     1.720000000    -3.259000000
O    -1.010000000     3.442000000    -3.913000000
H    -1.514000000     2.156000000    -2.502000000
C    -1.987000000     4.526000000    -0.876000000
C    -1.171000000     5.389000000    -1.802000000
H    -0.842000000     6.224000000    -1.179000000
H    -1.740000000     5.761000000    -2.657000000
C     0.131000000     4.580000000    -2.122000000
C     1.273000000     4.666000000    -1.259000000
H     1.403000000     5.406000000    -0.473000000
C     0.102000000     3.579000000    -3.127000000
C     1.249000000     2.846000000    -3.463000000
H     1.206000000     2.089000000    -4.241000000
C     2.392000000     3.001000000    -2.610000000
O     3.433000000     2.137000000    -2.792000000
C     3.622000000     1.115000000    -1.772000000
C     3.814000000    -0.358000000    -2.247000000
C     3.115000000    -0.792000000    -3.301000000
H     2.293000000    -0.193000000    -3.684000000
C     4.793000000    -1.227000000    -1.681000000
H     5.367000000    -0.919000000    -0.811000000
O     4.647000000     1.503000000    -0.881000000
H     2.701000000     1.066000000    -1.172000000
C     2.400000000     3.919000000    -1.542000000
C     3.616000000     4.182000000    -0.665000000
H     3.801000000     5.208000000    -0.343000000
H     4.528000000     4.001000000    -1.238000000
C     3.682000000     3.222000000     0.524000000
C     4.197000000     1.933000000     0.370000000
C     4.148000000     1.000000000     1.367000000
H     4.526000000    -0.002000000     1.182000000
C     3.755000000     1.399000000     2.638000000
O     3.519000000     0.391000000     3.570000000
C     2.169000000    -0.256000000     3.585000000
H     1.701000000    -0.036000000     2.614000000
C     2.267000000    -1.826000000     3.653000000
C     1.187000000    -2.589000000     4.059000000
H     0.185000000    -2.168000000     4.044000000
C     3.496000000    -2.461000000     3.283000000
H     4.321000000    -1.853000000     2.922000000
C     3.555000000    -3.821000000     3.260000000
O     4.818000000    -4.402000000     3.082000000
C     2.469000000    -4.579000000     3.720000000
H     2.553000000    -5.662000000     3.690000000
C     1.325000000    -3.984000000     4.113000000
O     0.240000000    -4.719000000     4.289000000
C    -0.853000000    -4.308000000     4.992000000
C    -2.005000000    -4.226000000     4.260000000
H    -2.029000000    -4.364000000     3.182000000
C    -0.842000000    -4.113000000     6.330000000
H     0.069000000    -4.387000000     6.856000000
C    -2.056000000    -3.758000000     7.006000000
H    -2.032000000    -3.651000000     8.088000000
C    -3.234000000    -3.658000000     6.256000000
H    -4.207000000    -3.398000000     6.664000000
C    -3.180000000    -3.792000000     4.899000000
O    -4.355000000    -3.591000000     4.075000000
C    -4.497000000    -2.711000000     3.064000000
C    -5.155000000    -3.070000000     1.870000000
H    -5.513000000    -4.093000000     1.789000000
C    -5.056000000    -2.241000000     0.796000000
O    -5.484000000    -2.614000000    -0.457000000
C    -6.164000000    -1.842000000    -1.350000000
C    -5.531000000    -1.337000000    -2.485000000
H    -4.475000000    -1.583000000    -2.565000000
C    -7.416000000    -1.412000000    -1.040000000
H    -7.996000000    -1.833000000    -0.223000000
C    -8.201000000    -0.750000000    -1.992000000
H    -9.254000000    -0.501000000    -1.891000000
C    -7.553000000    -0.285000000    -3.121000000
H    -8.107000000     0.352000000    -3.806000000
C    -6.248000000    -0.560000000    -3.382000000
O    -5.753000000    -0.250000000    -4.604000000
C    -4.468000000     0.207000000    -4.781000000
C    -3.666000000    -0.433000000    -5.726000000
H    -4.012000000    -1.314000000    -6.261000000
C    -2.333000000    -0.029000000    -5.906000000
O    -1.538000000    -0.631000000    -6.866000000
C    -0.134000000    -0.686000000    -6.796000000
C     0.429000000    -1.663000000    -6.004000000
H    -0.133000000    -2.461000000    -5.525000000
C     0.679000000     0.149000000    -7.584000000
H     0.293000000     0.859000000    -8.311000000
C     2.090000000     0.098000000    -7.413000000
H     2.718000000     0.783000000    -7.978000000
C     2.674000000    -0.703000000    -6.402000000
H     3.757000000    -0.728000000    -6.306000000
C     1.837000000    -1.624000000    -5.747000000
O     2.383000000    -2.488000000    -4.873000000
C     3.084000000    -2.103000000    -3.708000000
C     4.003000000    -3.008000000    -3.183000000
H     4.041000000    -4.025000000    -3.565000000
C     4.901000000    -2.540000000    -2.194000000
O     5.676000000    -3.475000000    -1.586000000
C     6.065000000    -3.580000000    -0.284000000
C     7.403000000    -3.481000000     0.015000000
H     8.116000000    -3.183000000    -0.749000000
C     7.804000000    -3.671000000     1.281000000
H     8.871000000    -3.671000000     1.490000000
C     6.914000000    -4.066000000     2.275000000
H     7.276000000    -4.284000000     3.276000000
C     5.608000000    -4.045000000     2.025000000
C     5.149000000    -3.937000000     0.711000000
H     4.116000000    -4.033000000     0.387000000
C    -0.962000000    -1.626000000    -2.649000000
H    -0.721000000    -1.695000000    -3.706000000
C    -0.703000000    -0.445000000    -1.977000000
H    -0.305000000     0.345000000    -2.609000000
C    -0.714000000    -0.410000000    -0.570000000
H    -0.417000000     0.492000000    -0.059000000
C    -1.220000000    -1.464000000     0.109000000
H    -1.236000000    -1.490000000     1.195000000
C    -1.738000000    -2.572000000    -0.572000000
H    -2.247000000    -3.423000000    -0.127000000
C    -1.565000000    -2.698000000    -1.952000000
C    -1.933000000    -3.971000000    -2.640000000
O    -2.611000000    -4.782000000    -2.075000000
O    -1.406000000    -4.236000000    -3.733000000
O     1.486000000    -3.050000000    -0.675000000
H     0.548000000    -2.873000000    -0.743000000
H     1.903000000    -2.304000000    -1.105000000
O     2.454000000    -5.301000000    -2.068000000
H     1.818000000    -5.324000000    -2.783000000
H     2.273000000    -4.480000000    -1.612000000
O    -0.401000000    -9.654000000    -2.590000000
H     0.433000000    -9.681000000    -3.059000000
H    -0.843000000    -8.878000000    -2.933000000
O    -5.356000000    -7.295000000     1.378000000
H    -5.409000000    -6.710000000     0.622000000
H    -5.451000000    -8.173000000     1.008000000
O    -2.994000000    -4.163000000    -6.011000000
H    -3.305000000    -5.054000000    -6.166000000
H    -2.266000000    -4.266000000    -5.398000000
O    -7.820000000    -4.343000000    -0.038000000
H    -7.813000000    -4.119000000    -0.969000000
H    -7.059000000    -4.912000000     0.078000000
O    -4.944000000    -7.815000000    -2.020000000
H    -4.309000000    -8.529000000    -2.074000000
H    -5.596000000    -8.023000000    -2.690000000
O     0.632000000    -6.177000000    -3.720000000
H     0.104000000    -5.554000000    -4.219000000
H     0.008000000    -6.845000000    -3.434000000
O     0.904000000    -7.948000000     1.701000000
H     0.335000000    -7.916000000     2.470000000
H     0.931000000    -7.045000000     1.386000000
O    -4.894000000    -7.012000000    -6.055000000
H    -5.085000000    -7.923000000    -6.279000000
H    -5.271000000    -6.896000000    -5.183000000
O    -2.087000000    -7.918000000    -5.689000000
H    -2.038000000    -7.777000000    -4.743000000
H    -3.010000000    -7.784000000    -5.904000000
O    -4.751000000    -4.705000000    -3.768000000
H    -4.233000000    -4.366000000    -4.497000000
H    -4.109000000    -4.894000000    -3.084000000
O     0.434000000    -5.195000000     1.600000000
H     0.472000000    -4.788000000     2.466000000
H     0.734000000    -4.512000000     1.001000000
O     1.505000000    -6.061000000    -6.226000000
H     1.900000000    -6.909000000    -6.426000000
H     1.271000000    -6.117000000    -5.300000000
O    -1.898000000    -7.315000000    -3.039000000
H    -2.841000000    -7.403000000    -2.902000000
H    -1.691000000    -6.436000000    -2.721000000
O    -7.287000000    -3.946000000    -4.029000000
H    -7.049000000    -3.230000000    -4.619000000
H    -6.452000000    -4.355000000    -3.801000000
O    -3.201000000    -9.922000000    -2.142000000
H    -3.289000000   -10.866000000    -2.016000000
H    -2.260000000    -9.781000000    -2.250000000
O    -2.671000000    -2.929000000    -8.355000000
H    -1.805000000    -3.315000000    -8.482000000
H    -2.939000000    -3.223000000    -7.484000000
O    -5.389000000    -5.571000000    -0.789000000
H    -4.728000000    -4.927000000    -1.042000000
H    -5.180000000    -6.346000000    -1.310000000
