215
-1466.97193
C     2.325000000     2.628000000    -4.069000000
H     2.411000000     1.687000000    -4.607000000
C     2.937000000     2.810000000    -2.781000000
C     2.725000000     4.014000000    -2.107000000
H     3.355000000     4.226000000    -1.247000000
C     3.504000000     1.574000000    -2.041000000
O     4.114000000     0.631000000    -2.979000000
H     2.703000000     1.075000000    -1.475000000
O     4.409000000     2.079000000    -1.061000000
C     4.191000000     1.506000000     0.168000000
C     3.526000000     2.175000000     1.142000000
H     3.099000000     3.158000000     0.963000000
C     3.363000000     1.630000000     2.399000000
O     2.738000000     2.330000000     3.355000000
C     3.924000000     0.381000000     2.730000000
C     3.835000000    -0.159000000     4.127000000
H     4.620000000    -0.889000000     4.332000000
C     2.505000000    -0.876000000     4.280000000
C     2.517000000    -2.159000000     3.824000000
H     3.444000000    -2.645000000     3.531000000
H     3.934000000     0.575000000     4.929000000
C     4.554000000    -0.292000000     1.744000000
H     4.884000000    -1.319000000     1.879000000
C     4.726000000     0.241000000     0.429000000
C     5.483000000    -0.516000000    -0.695000000
H     6.064000000    -1.294000000    -0.196000000
H     6.083000000     0.185000000    -1.279000000
C     4.532000000    -1.310000000    -1.642000000
C     4.245000000    -2.605000000    -1.363000000
H     4.589000000    -3.097000000    -0.458000000
C     3.940000000    -0.647000000    -2.797000000
C     2.890000000    -1.267000000    -3.413000000
H     2.339000000    -0.627000000    -4.098000000
C     2.653000000    -2.597000000    -3.150000000
O     1.488000000    -3.117000000    -3.754000000
C     0.287000000    -2.990000000    -2.982000000
C    -0.895000000    -2.551000000    -3.819000000
C    -2.133000000    -3.130000000    -3.682000000
H    -2.273000000    -3.913000000    -2.941000000
C    -0.743000000    -1.560000000    -4.786000000
H     0.287000000    -1.262000000    -4.962000000
O     0.086000000    -4.243000000    -2.385000000
H     0.514000000    -2.250000000    -2.201000000
C     3.307000000    -3.284000000    -2.151000000
C     2.821000000    -4.680000000    -1.627000000
H     3.638000000    -5.270000000    -1.207000000
H     2.430000000    -5.259000000    -2.466000000
C     1.695000000    -4.562000000    -0.646000000
C     2.041000000    -4.557000000     0.735000000
H     3.079000000    -4.807000000     0.942000000
C     0.403000000    -4.384000000    -1.041000000
C    -0.609000000    -4.201000000    -0.115000000
H    -1.631000000    -3.972000000    -0.406000000
C    -0.346000000    -4.286000000     1.268000000
O    -1.414000000    -4.149000000     2.015000000
C    -1.553000000    -2.852000000     2.610000000
C    -3.029000000    -2.292000000     2.501000000
C    -3.798000000    -2.746000000     1.422000000
H    -3.442000000    -3.525000000     0.753000000
C    -3.555000000    -1.309000000     3.301000000
H    -2.940000000    -0.872000000     4.083000000
O    -1.114000000    -2.810000000     4.008000000
H    -1.087000000    -2.084000000     1.976000000
C     1.023000000    -4.421000000     1.703000000
C     1.314000000    -4.379000000     3.182000000
H     2.330000000    -4.729000000     3.373000000
H     0.671000000    -5.020000000     3.789000000
C     1.317000000    -2.916000000     3.783000000
C     0.205000000    -2.308000000     4.299000000
C     0.156000000    -0.963000000     4.692000000
H    -0.787000000    -0.430000000     4.787000000
C     1.318000000    -0.195000000     4.634000000
O     1.251000000     1.192000000     4.776000000
C     1.315000000     2.005000000     3.575000000
H     1.006000000     1.389000000     2.718000000
C     0.268000000     3.090000000     3.665000000
C     0.323000000     4.149000000     2.795000000
H     1.245000000     4.285000000     2.236000000
C    -0.805000000     3.006000000     4.491000000
H    -0.928000000     2.208000000     5.219000000
C    -1.856000000     3.896000000     4.392000000
O    -2.952000000     3.796000000     5.232000000
C    -1.764000000     5.019000000     3.603000000
H    -2.601000000     5.711000000     3.566000000
C    -0.709000000     5.074000000     2.716000000
O    -0.717000000     6.082000000     1.849000000
C     0.439000000     6.448000000     1.209000000
C     0.647000000     6.269000000    -0.181000000
H    -0.127000000     5.795000000    -0.779000000
C     1.504000000     6.974000000     1.961000000
H     1.357000000     7.112000000     3.029000000
C     2.661000000     7.489000000     1.346000000
H     3.506000000     7.848000000     1.928000000
C     2.831000000     7.240000000    -0.036000000
H     3.809000000     7.508000000    -0.429000000
C     1.813000000     6.646000000    -0.829000000
O     1.963000000     6.371000000    -2.193000000
C     1.961000000     5.085000000    -2.713000000
C     1.356000000     4.851000000    -3.974000000
H     0.681000000     5.640000000    -4.293000000
C     1.524000000     3.631000000    -4.605000000
O     0.852000000     3.484000000    -5.820000000
C     0.644000000     2.259000000    -6.409000000
C    -0.448000000     1.481000000    -6.217000000
H    -1.066000000     1.756000000    -5.365000000
C     1.380000000     2.030000000    -7.557000000
H     2.176000000     2.754000000    -7.708000000
C     1.104000000     0.975000000    -8.427000000
H     1.661000000     1.018000000    -9.360000000
C     0.049000000     0.072000000    -8.129000000
H    -0.185000000    -0.679000000    -8.880000000
C    -0.741000000     0.339000000    -6.987000000
O    -1.816000000    -0.425000000    -6.826000000
C    -1.871000000    -1.248000000    -5.687000000
C    -3.112000000    -1.800000000    -5.500000000
H    -4.059000000    -1.665000000    -6.015000000
C    -3.231000000    -2.746000000    -4.467000000
O    -4.412000000    -3.373000000    -4.274000000
C    -4.921000000    -3.891000000    -3.032000000
C    -5.196000000    -3.027000000    -1.955000000
H    -4.996000000    -1.959000000    -1.993000000
C    -4.942000000    -5.252000000    -2.920000000
H    -4.562000000    -5.861000000    -3.736000000
C    -5.330000000    -5.855000000    -1.745000000
H    -5.339000000    -6.935000000    -1.618000000
C    -5.696000000    -5.037000000    -0.635000000
H    -6.012000000    -5.459000000     0.315000000
C    -5.608000000    -3.638000000    -0.777000000
O    -5.984000000    -2.886000000     0.350000000
C    -5.084000000    -2.313000000     1.307000000
C    -5.663000000    -1.323000000     2.091000000
H    -6.664000000    -0.935000000     1.925000000
C    -4.875000000    -0.837000000     3.062000000
O    -5.459000000     0.054000000     3.951000000
C    -4.929000000     0.821000000     4.970000000
C    -5.420000000     0.742000000     6.274000000
H    -6.057000000    -0.115000000     6.479000000
C    -5.026000000     1.650000000     7.272000000
H    -5.248000000     1.402000000     8.307000000
C    -4.022000000     2.549000000     6.927000000
H    -3.560000000     3.079000000     7.756000000
C    -3.649000000     2.732000000     5.610000000
C    -4.049000000     1.850000000     4.618000000
H    -3.859000000     2.008000000     3.559000000
C    -2.109000000    -0.088000000    -0.005000000
H    -2.925000000    -0.804000000    -0.045000000
C    -0.818000000    -0.577000000    -0.198000000
H    -0.661000000    -1.627000000    -0.429000000
C     0.283000000     0.271000000    -0.075000000
H     1.288000000    -0.184000000    -0.088000000
C     0.101000000     1.609000000     0.264000000
H     1.010000000     2.195000000     0.378000000
C    -1.182000000     2.090000000     0.434000000
H    -1.192000000     3.170000000     0.564000000
C    -2.347000000     1.287000000     0.285000000
C    -3.712000000     1.911000000     0.523000000
O    -3.786000000     3.041000000     0.967000000
O    -4.716000000     1.335000000     0.150000000
O    -5.643000000     3.952000000    -3.494000000
H    -5.910000000     4.812000000    -3.819000000
H    -5.987000000     3.916000000    -2.602000000
O    -7.798000000     5.269000000     0.891000000
H    -7.922000000     6.136000000     0.506000000
H    -8.489000000     5.198000000     1.550000000
O    -5.844000000     4.392000000     2.660000000
H    -6.387000000     4.785000000     1.978000000
H    -5.242000000     3.818000000     2.186000000
O    -3.050000000     4.703000000    -2.459000000
H    -3.137000000     4.983000000    -1.547000000
H    -3.796000000     4.122000000    -2.603000000
O    -4.996000000     7.275000000    -1.045000000
H    -4.389000000     7.487000000    -1.754000000
H    -4.440000000     6.914000000    -0.354000000
O    -4.158000000     1.089000000    -2.438000000
H    -3.227000000     1.312000000    -2.456000000
H    -4.385000000     1.084000000    -1.508000000
O    -7.235000000     0.200000000    -0.325000000
H    -7.384000000    -0.708000000    -0.590000000
H    -6.300000000     0.242000000    -0.125000000
O    -6.003000000     3.552000000    -0.862000000
H    -6.365000000     4.056000000    -0.133000000
H    -5.539000000     2.827000000    -0.445000000
O    -9.612000000     0.297000000     3.355000000
H   -10.303000000     0.493000000     3.987000000
H    -8.963000000     0.988000000     3.487000000
O    -7.871000000     3.350000000     4.354000000
H    -6.977000000     3.676000000     4.459000000
H    -7.942000000     3.143000000     3.422000000
O    -9.673000000     4.069000000    -2.032000000
H    -8.894000000     4.587000000    -1.827000000
H    -9.380000000     3.160000000    -1.966000000
O    -3.192000000     3.010000000    -4.869000000
H    -2.639000000     2.621000000    -4.193000000
H    -3.962000000     3.327000000    -4.396000000
O    -2.827000000     5.262000000     0.080000000
H    -2.287000000     5.572000000     0.807000000
H    -3.140000000     4.403000000     0.363000000
O    -5.973000000     0.687000000    -4.308000000
H    -6.228000000     1.599000000    -4.444000000
H    -5.228000000     0.733000000    -3.709000000
O    -5.239000000     6.398000000     5.213000000
H    -4.396000000     5.965000000     5.348000000
H    -5.659000000     5.892000000     4.518000000
O    -1.775000000     7.612000000    -1.288000000
H    -2.122000000     7.666000000    -2.178000000
H    -2.036000000     6.743000000    -0.982000000
O    -8.437000000     1.309000000    -2.525000000
H    -8.046000000     1.060000000    -1.688000000
H    -7.766000000     1.099000000    -3.175000000
O    -8.050000000     2.071000000     1.735000000
H    -7.532000000     1.388000000     1.309000000
H    -8.409000000     2.584000000     1.011000000
O    -1.448000000     2.092000000    -2.949000000
H    -1.451000000     3.008000000    -2.672000000
H    -0.727000000     1.696000000    -2.460000000
