215
-1434.39214
C    -4.171000000    -2.285000000     1.220000000
H    -4.804000000    -1.566000000     0.705000000
C    -3.352000000    -1.938000000     2.309000000
C    -3.104000000    -2.945000000     3.230000000
H    -2.652000000    -2.621000000     4.164000000
C    -3.002000000    -0.476000000     2.542000000
O    -4.166000000     0.301000000     2.385000000
H    -2.223000000    -0.148000000     1.838000000
O    -2.703000000    -0.357000000     3.943000000
C    -1.566000000     0.420000000     4.222000000
C    -0.369000000    -0.236000000     4.512000000
H    -0.409000000    -1.321000000     4.469000000
C     0.885000000     0.428000000     4.494000000
O     1.962000000    -0.351000000     4.542000000
C     0.871000000     1.827000000     4.484000000
C     2.152000000     2.570000000     4.501000000
H     2.066000000     3.568000000     4.938000000
C     2.737000000     2.695000000     3.071000000
C     2.373000000     3.764000000     2.272000000
H     1.844000000     4.633000000     2.655000000
H     2.855000000     2.008000000     5.119000000
C    -0.372000000     2.546000000     4.390000000
H    -0.338000000     3.631000000     4.328000000
C    -1.557000000     1.830000000     4.150000000
C    -2.888000000     2.550000000     3.901000000
H    -2.634000000     3.545000000     4.272000000
H    -3.736000000     2.266000000     4.528000000
C    -3.290000000     2.587000000     2.455000000
C    -2.950000000     3.725000000     1.771000000
H    -2.570000000     4.539000000     2.383000000
C    -3.927000000     1.503000000     1.786000000
C    -4.259000000     1.652000000     0.469000000
H    -4.770000000     0.852000000    -0.061000000
C    -3.962000000     2.764000000    -0.229000000
O    -4.093000000     2.743000000    -1.568000000
C    -2.945000000     2.311000000    -2.295000000
C    -3.260000000     1.240000000    -3.359000000
C    -2.320000000     0.903000000    -4.299000000
H    -1.353000000     1.398000000    -4.330000000
C    -4.456000000     0.607000000    -3.295000000
H    -5.247000000     0.970000000    -2.644000000
O    -2.358000000     3.478000000    -2.869000000
H    -2.282000000     1.899000000    -1.521000000
C    -3.201000000     3.796000000     0.415000000
C    -2.728000000     5.004000000    -0.388000000
H    -2.642000000     5.907000000     0.219000000
H    -3.383000000     5.318000000    -1.204000000
C    -1.350000000     4.628000000    -0.928000000
C    -0.167000000     4.754000000    -0.118000000
H    -0.270000000     5.314000000     0.808000000
C    -1.274000000     3.976000000    -2.145000000
C    -0.060000000     3.602000000    -2.641000000
H    -0.014000000     3.165000000    -3.635000000
C     1.111000000     3.888000000    -1.987000000
O     2.287000000     3.441000000    -2.535000000
C     2.922000000     2.256000000    -1.927000000
C     3.555000000     1.331000000    -2.950000000
C     3.129000000     1.384000000    -4.268000000
H     2.338000000     2.094000000    -4.500000000
C     4.425000000     0.391000000    -2.557000000
H     4.578000000     0.188000000    -1.500000000
O     3.902000000     2.637000000    -0.905000000
H     2.147000000     1.610000000    -1.490000000
C     1.062000000     4.428000000    -0.727000000
C     2.380000000     4.848000000    -0.016000000
H     2.274000000     5.771000000     0.558000000
H     3.045000000     5.154000000    -0.826000000
C     2.782000000     3.714000000     0.936000000
C     3.506000000     2.695000000     0.433000000
C     3.772000000     1.577000000     1.212000000
H     4.357000000     0.763000000     0.792000000
C     3.480000000     1.655000000     2.536000000
O     3.724000000     0.496000000     3.257000000
C     2.686000000    -0.483000000     3.272000000
H     2.033000000    -0.209000000     2.430000000
C     3.222000000    -1.841000000     2.944000000
C     2.351000000    -2.937000000     3.159000000
H     1.339000000    -2.732000000     3.497000000
C     4.448000000    -2.007000000     2.354000000
H     5.057000000    -1.121000000     2.197000000
C     4.929000000    -3.349000000     2.057000000
O     6.140000000    -3.617000000     1.495000000
C     4.086000000    -4.380000000     2.370000000
H     4.444000000    -5.361000000     2.071000000
C     2.821000000    -4.236000000     2.880000000
O     2.124000000    -5.358000000     3.339000000
C     0.972000000    -5.302000000     4.109000000
C    -0.284000000    -5.336000000     3.511000000
H    -0.237000000    -5.284000000     2.427000000
C     1.032000000    -4.997000000     5.465000000
H     2.019000000    -4.856000000     5.898000000
C    -0.125000000    -4.766000000     6.247000000
H     0.010000000    -4.510000000     7.295000000
C    -1.382000000    -4.979000000     5.592000000
H    -2.215000000    -4.668000000     6.216000000
C    -1.458000000    -5.154000000     4.225000000
O    -2.736000000    -5.237000000     3.723000000
C    -3.338000000    -4.283000000     2.936000000
C    -3.850000000    -4.660000000     1.718000000
H    -3.814000000    -5.724000000     1.497000000
C    -4.311000000    -3.650000000     0.908000000
O    -4.821000000    -3.992000000    -0.332000000
C    -5.725000000    -3.207000000    -0.999000000
C    -5.324000000    -2.537000000    -2.090000000
H    -4.343000000    -2.583000000    -2.555000000
C    -7.037000000    -3.023000000    -0.476000000
H    -7.447000000    -3.622000000     0.333000000
C    -7.940000000    -2.190000000    -1.152000000
H    -8.955000000    -2.056000000    -0.787000000
C    -7.576000000    -1.627000000    -2.341000000
H    -8.305000000    -1.029000000    -2.882000000
C    -6.255000000    -1.785000000    -2.805000000
O    -5.858000000    -1.181000000    -3.967000000
C    -4.715000000    -0.504000000    -4.102000000
C    -3.755000000    -0.881000000    -5.064000000
H    -4.049000000    -1.587000000    -5.836000000
C    -2.550000000    -0.177000000    -5.149000000
O    -1.640000000    -0.573000000    -6.126000000
C    -0.517000000     0.180000000    -6.497000000
C     0.843000000    -0.317000000    -6.351000000
H     0.898000000    -1.333000000    -5.968000000
C    -0.784000000     1.363000000    -7.184000000
H    -1.795000000     1.590000000    -7.512000000
C     0.303000000     2.161000000    -7.527000000
H     0.084000000     3.068000000    -8.086000000
C     1.629000000     1.818000000    -7.259000000
H     2.493000000     2.350000000    -7.650000000
C     1.887000000     0.547000000    -6.721000000
O     3.174000000     0.314000000    -6.463000000
C     3.682000000     0.469000000    -5.222000000
C     4.602000000    -0.477000000    -4.758000000
H     4.952000000    -1.328000000    -5.336000000
C     5.018000000    -0.582000000    -3.406000000
O     5.720000000    -1.661000000    -2.880000000
C     6.343000000    -1.720000000    -1.648000000
C     7.575000000    -1.064000000    -1.457000000
H     7.940000000    -0.446000000    -2.273000000
C     8.266000000    -1.143000000    -0.186000000
H     9.259000000    -0.731000000    -0.025000000
C     7.763000000    -2.043000000     0.750000000
H     8.283000000    -2.227000000     1.687000000
C     6.568000000    -2.759000000     0.525000000
C     5.850000000    -2.584000000    -0.626000000
H     5.003000000    -3.209000000    -0.894000000
C    -0.397000000    -1.076000000    -2.512000000
H    -0.406000000    -1.178000000    -3.594000000
C     0.048000000     0.077000000    -1.820000000
H     0.257000000     0.989000000    -2.372000000
C     0.023000000     0.120000000    -0.435000000
H     0.224000000     1.071000000     0.057000000
C    -0.338000000    -1.040000000     0.251000000
H    -0.521000000    -1.034000000     1.322000000
C    -0.657000000    -2.187000000    -0.465000000
H    -0.752000000    -3.062000000     0.173000000
C    -0.667000000    -2.232000000    -1.844000000
C    -1.160000000    -3.459000000    -2.569000000
O    -1.392000000    -4.487000000    -1.921000000
O    -1.155000000    -3.579000000    -3.785000000
O    -0.123000000    -5.972000000     0.029000000
H     0.810000000    -5.888000000    -0.167000000
H    -0.543000000    -5.310000000    -0.521000000
O     2.666000000    -1.734000000    -1.389000000
H     2.197000000    -1.423000000    -2.163000000
H     2.043000000    -1.625000000    -0.671000000
O    -6.759000000    -6.038000000    -1.359000000
H    -7.011000000    -5.954000000    -2.278000000
H    -5.928000000    -5.567000000    -1.295000000
O    -6.075000000    -5.189000000    -4.017000000
H    -6.101000000    -4.451000000    -4.627000000
H    -5.149000000    -5.284000000    -3.796000000
O    -3.187000000    -8.040000000    -1.161000000
H    -2.541000000    -8.541000000    -1.658000000
H    -2.955000000    -8.193000000    -0.245000000
O    -2.357000000    -7.619000000    -4.255000000
H    -2.949000000    -6.903000000    -4.021000000
H    -1.560000000    -7.444000000    -3.755000000
O     3.740000000    -3.291000000    -5.244000000
H     3.976000000    -3.389000000    -4.322000000
H     2.888000000    -3.721000000    -5.319000000
O     3.267000000    -4.236000000    -2.604000000
H     3.114000000    -3.327000000    -2.348000000
H     3.307000000    -4.715000000    -1.776000000
O    -1.325000000    -4.204000000    -7.925000000
H    -0.708000000    -4.708000000    -8.456000000
H    -2.157000000    -4.667000000    -8.020000000
O     1.210000000    -3.235000000    -8.615000000
H     0.404000000    -3.399000000    -8.126000000
H     1.116000000    -2.338000000    -8.938000000
O    -0.786000000    -8.166000000    -6.433000000
H    -1.228000000    -7.745000000    -5.696000000
H    -1.463000000    -8.708000000    -6.839000000
O     1.265000000    -4.275000000    -5.706000000
H     0.673000000    -4.885000000    -6.148000000
H     0.718000000    -3.846000000    -5.048000000
O    -0.306000000    -8.974000000    -0.622000000
H    -0.425000000    -8.217000000    -0.049000000
H     0.351000000    -8.692000000    -1.258000000
O     2.572000000    -6.298000000    -0.775000000
H     3.349000000    -6.685000000    -0.372000000
H     2.239000000    -6.982000000    -1.357000000
O     2.646000000    -6.476000000    -6.730000000
H     2.463000000    -5.555000000    -6.546000000
H     2.571000000    -6.551000000    -7.681000000
O    -0.340000000    -6.876000000    -3.043000000
H     0.549000000    -7.003000000    -2.710000000
H    -0.637000000    -6.066000000    -2.628000000
O    -5.720000000    -3.920000000    -6.639000000
H    -4.846000000    -4.020000000    -6.262000000
H    -5.799000000    -2.983000000    -6.817000000
O    -3.299000000    -4.064000000    -5.284000000
H    -2.640000000    -3.990000000    -4.594000000
H    -2.798000000    -4.268000000    -6.073000000
O    -3.912000000    -5.804000000    -2.623000000
H    -3.210000000    -5.153000000    -2.654000000
H    -3.593000000    -6.472000000    -2.016000000
