215
-1440.30881
C    -4.386000000    -2.331000000     2.533000000
H    -5.143000000    -1.564000000     2.673000000
C    -3.136000000    -2.069000000     2.998000000
C    -2.249000000    -3.140000000     2.866000000
H    -1.207000000    -2.983000000     3.132000000
C    -2.635000000    -0.610000000     3.338000000
O    -3.690000000     0.389000000     3.415000000
H    -1.931000000    -0.300000000     2.552000000
O    -1.849000000    -0.532000000     4.566000000
C    -0.705000000     0.163000000     4.632000000
C     0.527000000    -0.529000000     4.577000000
H     0.488000000    -1.614000000     4.530000000
C     1.716000000     0.098000000     4.531000000
O     2.809000000    -0.687000000     4.244000000
C     1.754000000     1.480000000     4.623000000
C     3.029000000     2.265000000     4.422000000
H     3.045000000     3.306000000     4.752000000
C     3.290000000     2.345000000     2.876000000
C     2.776000000     3.407000000     2.112000000
H     2.165000000     4.153000000     2.614000000
H     3.830000000     1.765000000     4.970000000
C     0.548000000     2.180000000     4.698000000
H     0.490000000     3.266000000     4.725000000
C    -0.664000000     1.527000000     4.565000000
C    -1.996000000     2.412000000     4.541000000
H    -1.832000000     3.457000000     4.812000000
H    -2.771000000     1.952000000     5.158000000
C    -2.621000000     2.577000000     3.182000000
C    -2.334000000     3.689000000     2.388000000
H    -1.740000000     4.444000000     2.897000000
C    -3.477000000     1.536000000     2.683000000
C    -4.086000000     1.737000000     1.476000000
H    -4.626000000     0.895000000     1.049000000
C    -3.700000000     2.769000000     0.622000000
O    -4.107000000     2.747000000    -0.678000000
C    -3.142000000     2.356000000    -1.654000000
C    -3.608000000     1.406000000    -2.744000000
C    -3.305000000     1.510000000    -4.111000000
H    -2.790000000     2.337000000    -4.595000000
C    -4.305000000     0.308000000    -2.282000000
H    -4.437000000     0.280000000    -1.203000000
O    -2.649000000     3.564000000    -2.272000000
H    -2.296000000     1.839000000    -1.177000000
C    -2.911000000     3.828000000     1.151000000
C    -2.530000000     5.048000000     0.285000000
H    -2.333000000     5.978000000     0.822000000
H    -3.384000000     5.276000000    -0.355000000
C    -1.301000000     4.687000000    -0.555000000
C    -0.081000000     4.978000000    -0.077000000
H    -0.083000000     5.451000000     0.902000000
C    -1.427000000     4.017000000    -1.770000000
C    -0.318000000     3.668000000    -2.500000000
H    -0.396000000     3.108000000    -3.428000000
C     0.894000000     3.904000000    -1.967000000
O     2.000000000     3.565000000    -2.700000000
C     2.707000000     2.419000000    -2.154000000
C     2.950000000     1.472000000    -3.329000000
C     2.090000000     1.452000000    -4.406000000
H     1.207000000     2.086000000    -4.372000000
C     4.051000000     0.569000000    -3.233000000
H     4.648000000     0.454000000    -2.332000000
O     3.875000000     2.749000000    -1.313000000
H     2.077000000     1.845000000    -1.458000000
C     1.068000000     4.526000000    -0.697000000
C     2.400000000     4.811000000    -0.060000000
H     2.290000000     5.644000000     0.638000000
H     3.120000000     5.150000000    -0.807000000
C     3.019000000     3.668000000     0.741000000
C     3.766000000     2.682000000     0.054000000
C     4.298000000     1.642000000     0.747000000
H     4.906000000     0.863000000     0.293000000
C     4.142000000     1.519000000     2.186000000
O     4.493000000     0.342000000     2.779000000
C     3.355000000    -0.676000000     2.974000000
H     2.482000000    -0.458000000     2.343000000
C     3.784000000    -2.058000000     2.569000000
C     3.170000000    -3.191000000     3.090000000
H     2.379000000    -3.111000000     3.832000000
C     4.607000000    -2.217000000     1.516000000
H     5.073000000    -1.387000000     0.991000000
C     4.942000000    -3.480000000     1.004000000
O     5.896000000    -3.690000000     0.040000000
C     4.459000000    -4.621000000     1.588000000
H     4.838000000    -5.544000000     1.158000000
C     3.562000000    -4.489000000     2.627000000
O     2.949000000    -5.617000000     3.132000000
C     1.666000000    -5.790000000     3.612000000
C     0.604000000    -5.689000000     2.732000000
H     0.648000000    -5.793000000     1.651000000
C     1.495000000    -5.645000000     4.940000000
H     2.377000000    -5.571000000     5.571000000
C     0.204000000    -5.347000000     5.388000000
H     0.050000000    -5.040000000     6.419000000
C    -0.916000000    -5.401000000     4.523000000
H    -1.902000000    -5.278000000     4.963000000
C    -0.684000000    -5.443000000     3.172000000
O    -1.683000000    -5.350000000     2.276000000
C    -2.622000000    -4.432000000     2.386000000
C    -3.883000000    -4.559000000     1.840000000
H    -4.279000000    -5.453000000     1.365000000
C    -4.812000000    -3.545000000     2.001000000
O    -6.152000000    -3.815000000     1.664000000
C    -6.562000000    -3.059000000     0.587000000
C    -5.651000000    -2.774000000    -0.417000000
H    -4.626000000    -3.135000000    -0.443000000
C    -7.854000000    -2.537000000     0.492000000
H    -8.572000000    -2.900000000     1.223000000
C    -8.198000000    -1.774000000    -0.624000000
H    -9.193000000    -1.338000000    -0.651000000
C    -7.319000000    -1.498000000    -1.641000000
H    -7.620000000    -0.899000000    -2.497000000
C    -6.033000000    -1.981000000    -1.481000000
O    -5.161000000    -1.953000000    -2.604000000
C    -4.607000000    -0.775000000    -3.138000000
C    -4.324000000    -0.641000000    -4.468000000
H    -4.554000000    -1.514000000    -5.072000000
C    -3.703000000     0.512000000    -5.002000000
O    -3.302000000     0.520000000    -6.328000000
C    -2.096000000     1.084000000    -6.697000000
C    -0.920000000     0.376000000    -6.325000000
H    -0.978000000    -0.554000000    -5.765000000
C    -2.006000000     2.267000000    -7.482000000
H    -2.942000000     2.714000000    -7.805000000
C    -0.781000000     2.834000000    -7.799000000
H    -0.716000000     3.773000000    -8.343000000
C     0.366000000     2.129000000    -7.366000000
H     1.361000000     2.516000000    -7.570000000
C     0.290000000     0.941000000    -6.672000000
O     1.482000000     0.302000000    -6.477000000
C     2.337000000     0.560000000    -5.429000000
C     3.461000000    -0.239000000    -5.387000000
H     3.628000000    -0.974000000    -6.171000000
C     4.281000000    -0.294000000    -4.276000000
O     5.309000000    -1.283000000    -4.169000000
C     5.949000000    -1.531000000    -2.924000000
C     7.092000000    -0.768000000    -2.628000000
H     7.484000000     0.040000000    -3.241000000
C     7.887000000    -1.060000000    -1.538000000
H     8.736000000    -0.461000000    -1.218000000
C     7.442000000    -2.083000000    -0.717000000
H     8.010000000    -2.379000000     0.161000000
C     6.340000000    -2.856000000    -0.986000000
C     5.578000000    -2.568000000    -2.141000000
H     4.729000000    -3.193000000    -2.406000000
C     0.240000000    -1.043000000    -2.018000000
H     0.122000000    -1.326000000    -3.060000000
C    -0.076000000     0.237000000    -1.677000000
H    -0.326000000     0.955000000    -2.453000000
C    -0.081000000     0.644000000    -0.381000000
H    -0.432000000     1.653000000    -0.150000000
C     0.315000000    -0.325000000     0.640000000
H     0.346000000     0.015000000     1.672000000
C     0.737000000    -1.588000000     0.304000000
H     1.145000000    -2.189000000     1.113000000
C     0.674000000    -1.985000000    -1.076000000
C     0.940000000    -3.400000000    -1.444000000
O     1.065000000    -4.171000000    -0.544000000
O     0.899000000    -3.796000000    -2.594000000
O    -0.623000000    -6.499000000    -1.181000000
H    -0.150000000    -5.807000000    -0.718000000
H    -0.763000000    -6.147000000    -2.060000000
O     3.170000000    -4.885000000    -3.458000000
H     2.228000000    -4.752000000    -3.349000000
H     3.458000000    -4.138000000    -3.983000000
O    -0.259000000    -5.737000000    -7.254000000
H    -1.085000000    -6.214000000    -7.331000000
H     0.378000000    -6.402000000    -6.993000000
O     3.186000000    -8.307000000    -0.779000000
H     3.639000000    -8.454000000     0.051000000
H     3.456000000    -7.429000000    -1.048000000
O     0.740000000    -9.959000000     0.083000000
H     0.043000000    -9.348000000    -0.157000000
H     1.490000000    -9.685000000    -0.443000000
O    -1.968000000    -8.726000000    -0.497000000
H    -2.449000000    -8.717000000     0.330000000
H    -1.597000000    -7.846000000    -0.568000000
O     1.408000000    -7.139000000    -4.868000000
H     1.672000000    -7.430000000    -3.995000000
H     2.218000000    -7.143000000    -5.378000000
O     1.445000000    -3.003000000    -5.182000000
H     1.172000000    -3.089000000    -4.268000000
H     0.625000000    -2.932000000    -5.670000000
O     3.644000000    -9.211000000    -3.481000000
H     3.094000000    -9.917000000    -3.821000000
H     3.441000000    -9.177000000    -2.547000000
O    -0.489000000    -2.741000000    -7.275000000
H    -1.429000000    -2.559000000    -7.266000000
H    -0.425000000    -3.653000000    -7.560000000
O    -1.511000000    -7.882000000    -4.268000000
H    -1.366000000    -6.936000000    -4.289000000
H    -0.637000000    -8.256000000    -4.155000000
O     6.483000000    -5.982000000    -2.085000000
H     6.776000000    -6.352000000    -1.252000000
H     5.618000000    -5.619000000    -1.894000000
O    -2.991000000    -3.666000000    -4.926000000
H    -2.191000000    -4.156000000    -4.737000000
H    -3.649000000    -4.049000000    -4.345000000
O     3.310000000    -5.743000000    -1.055000000
H     2.648000000    -5.144000000    -0.711000000
H     3.263000000    -5.633000000    -2.005000000
O     2.164000000    -4.456000000    -7.721000000
H     2.145000000    -3.735000000    -7.091000000
H     1.380000000    -4.967000000    -7.523000000
O    -4.232000000    -6.318000000    -0.810000000
H    -3.280000000    -6.341000000    -0.714000000
H    -4.381000000    -5.777000000    -1.585000000
O    -4.903000000    -4.681000000    -3.166000000
H    -5.685000000    -5.003000000    -3.614000000
H    -5.134000000    -3.794000000    -2.887000000
O    -0.547000000    -5.398000000    -4.116000000
H    -0.069000000    -4.794000000    -3.548000000
H     0.137000000    -5.888000000    -4.573000000
O     5.519000000    -7.874000000    -5.146000000
H     4.913000000    -8.301000000    -5.752000000
H     4.989000000    -7.682000000    -4.373000000
