215
-1460.19901
C     2.624000000     3.162000000    -4.163000000
H     3.000000000     2.276000000    -4.669000000
C     2.704000000     3.210000000    -2.767000000
C     2.185000000     4.294000000    -2.037000000
H     2.315000000     4.385000000    -0.962000000
C     3.384000000     2.035000000    -2.006000000
O     4.137000000     1.100000000    -2.819000000
H     2.643000000     1.337000000    -1.590000000
O     4.327000000     2.545000000    -0.998000000
C     4.381000000     1.708000000     0.162000000
C     3.657000000     2.225000000     1.226000000
H     3.236000000     3.226000000     1.186000000
C     3.514000000     1.558000000     2.431000000
O     2.588000000     2.107000000     3.352000000
C     4.047000000     0.288000000     2.604000000
C     3.808000000    -0.537000000     3.858000000
H     4.530000000    -1.282000000     4.197000000
C     2.528000000    -1.292000000     3.832000000
C     2.479000000    -2.581000000     3.293000000
H     3.410000000    -2.871000000     2.812000000
H     3.915000000     0.132000000     4.715000000
C     4.733000000    -0.247000000     1.527000000
H     5.089000000    -1.274000000     1.555000000
C     4.944000000     0.400000000     0.303000000
C     5.663000000    -0.345000000    -0.824000000
H     6.325000000    -1.094000000    -0.386000000
H     6.259000000     0.322000000    -1.451000000
C     4.702000000    -1.036000000    -1.703000000
C     4.408000000    -2.385000000    -1.585000000
H     5.014000000    -2.961000000    -0.890000000
C     3.906000000    -0.252000000    -2.594000000
C     2.876000000    -0.842000000    -3.352000000
H     2.249000000    -0.244000000    -4.009000000
C     2.521000000    -2.178000000    -3.122000000
O     1.385000000    -2.702000000    -3.809000000
C     0.177000000    -2.823000000    -3.130000000
C    -1.039000000    -2.239000000    -3.969000000
C    -2.318000000    -2.743000000    -3.757000000
H    -2.406000000    -3.601000000    -3.096000000
C    -0.823000000    -1.153000000    -4.828000000
H     0.204000000    -0.855000000    -5.024000000
O    -0.099000000    -4.096000000    -2.668000000
H     0.274000000    -2.194000000    -2.233000000
C     3.319000000    -2.951000000    -2.244000000
C     2.896000000    -4.349000000    -1.934000000
H     3.805000000    -4.754000000    -1.484000000
H     2.762000000    -4.957000000    -2.832000000
C     1.671000000    -4.460000000    -0.989000000
C     1.912000000    -4.630000000     0.381000000
H     2.928000000    -4.726000000     0.754000000
C     0.340000000    -4.413000000    -1.364000000
C    -0.709000000    -4.384000000    -0.457000000
H    -1.701000000    -4.108000000    -0.807000000
C    -0.450000000    -4.411000000     0.898000000
O    -1.501000000    -4.369000000     1.756000000
C    -1.627000000    -3.080000000     2.481000000
C    -3.027000000    -2.496000000     2.531000000
C    -3.856000000    -2.589000000     1.411000000
H    -3.446000000    -3.009000000     0.497000000
C    -3.544000000    -1.883000000     3.699000000
H    -2.944000000    -1.931000000     4.604000000
O    -1.084000000    -3.304000000     3.849000000
H    -1.046000000    -2.227000000     2.099000000
C     0.886000000    -4.596000000     1.363000000
C     1.193000000    -4.722000000     2.852000000
H     2.126000000    -5.278000000     2.965000000
H     0.494000000    -5.234000000     3.517000000
C     1.302000000    -3.329000000     3.383000000
C     0.160000000    -2.741000000     4.068000000
C     0.134000000    -1.413000000     4.460000000
H    -0.767000000    -0.926000000     4.824000000
C     1.338000000    -0.694000000     4.317000000
O     1.267000000     0.665000000     4.631000000
C     1.229000000     1.481000000     3.428000000
H     1.098000000     0.891000000     2.508000000
C     0.073000000     2.478000000     3.518000000
C     0.148000000     3.712000000     2.862000000
H     1.065000000     3.995000000     2.351000000
C    -1.030000000     2.213000000     4.343000000
H    -1.022000000     1.420000000     5.087000000
C    -2.030000000     3.220000000     4.513000000
O    -2.968000000     3.099000000     5.504000000
C    -1.925000000     4.511000000     3.895000000
H    -2.488000000     5.372000000     4.246000000
C    -0.822000000     4.689000000     3.087000000
O    -0.690000000     5.935000000     2.521000000
C     0.287000000     6.302000000     1.594000000
C     0.121000000     6.197000000     0.177000000
H    -0.797000000     5.823000000    -0.270000000
C     1.563000000     6.712000000     2.122000000
H     1.791000000     6.900000000     3.168000000
C     2.550000000     7.035000000     1.166000000
H     3.440000000     7.501000000     1.582000000
C     2.326000000     7.025000000    -0.216000000
H     3.109000000     7.321000000    -0.909000000
C     1.148000000     6.508000000    -0.688000000
O     1.009000000     6.377000000    -2.087000000
C     1.617000000     5.359000000    -2.751000000
C     1.400000000     5.292000000    -4.170000000
H     0.907000000     6.089000000    -4.719000000
C     1.938000000     4.171000000    -4.848000000
O     1.646000000     3.945000000    -6.264000000
C     1.240000000     2.660000000    -6.675000000
C    -0.018000000     2.206000000    -6.375000000
H    -0.661000000     2.901000000    -5.842000000
C     2.108000000     1.915000000    -7.560000000
H     3.119000000     2.227000000    -7.807000000
C     1.680000000     0.638000000    -7.898000000
H     2.293000000     0.017000000    -8.546000000
C     0.407000000     0.199000000    -7.625000000
H     0.036000000    -0.766000000    -7.961000000
C    -0.441000000     0.950000000    -6.767000000
O    -1.711000000     0.420000000    -6.367000000
C    -1.915000000    -0.608000000    -5.510000000
C    -3.204000000    -1.152000000    -5.363000000
H    -4.037000000    -0.740000000    -5.928000000
C    -3.379000000    -2.245000000    -4.497000000
O    -4.635000000    -2.818000000    -4.363000000
C    -5.063000000    -3.288000000    -3.169000000
C    -5.263000000    -2.373000000    -2.168000000
H    -4.957000000    -1.359000000    -2.410000000
C    -5.232000000    -4.653000000    -3.005000000
H    -5.095000000    -5.379000000    -3.802000000
C    -5.675000000    -5.085000000    -1.728000000
H    -5.800000000    -6.148000000    -1.539000000
C    -5.848000000    -4.136000000    -0.723000000
H    -5.912000000    -4.486000000     0.304000000
C    -5.591000000    -2.820000000    -0.913000000
O    -5.718000000    -1.918000000     0.105000000
C    -5.053000000    -1.913000000     1.309000000
C    -5.569000000    -1.275000000     2.437000000
H    -6.509000000    -0.751000000     2.283000000
C    -4.853000000    -1.367000000     3.662000000
O    -5.490000000    -0.949000000     4.789000000
C    -4.963000000     0.056000000     5.615000000
C    -5.103000000    -0.082000000     6.960000000
H    -5.756000000    -0.897000000     7.260000000
C    -4.523000000     0.774000000     7.870000000
H    -4.677000000     0.753000000     8.945000000
C    -3.830000000     1.868000000     7.373000000
H    -3.441000000     2.664000000     8.003000000
C    -3.611000000     2.021000000     5.952000000
C    -4.162000000     1.080000000     5.097000000
H    -4.114000000     1.119000000     4.012000000
C    -2.684000000     0.361000000    -0.498000000
H    -3.701000000    -0.016000000    -0.426000000
C    -1.635000000    -0.542000000    -0.693000000
H    -1.812000000    -1.605000000    -0.831000000
C    -0.311000000    -0.181000000    -0.438000000
H     0.431000000    -0.985000000    -0.542000000
C    -0.053000000     1.162000000    -0.206000000
H     0.962000000     1.550000000    -0.189000000
C    -1.122000000     2.065000000    -0.125000000
H    -0.827000000     3.091000000     0.078000000
C    -2.481000000     1.665000000    -0.294000000
C    -3.660000000     2.606000000    -0.269000000
O    -3.664000000     3.680000000     0.292000000
O    -4.738000000     2.174000000    -0.673000000
O    -5.131000000     2.787000000    -5.889000000
H    -6.027000000     2.578000000    -5.625000000
H    -4.584000000     2.419000000    -5.195000000
O    -5.647000000     2.506000000     2.217000000
H    -6.260000000     1.865000000     1.860000000
H    -5.077000000     2.729000000     1.481000000
O    -2.948000000     4.879000000    -3.317000000
H    -2.975000000     5.421000000    -4.105000000
H    -3.468000000     5.363000000    -2.675000000
O    -9.495000000     4.897000000    -0.089000000
H    -9.545000000     4.786000000     0.861000000
H    -8.816000000     4.282000000    -0.366000000
O    -6.179000000     7.450000000     1.152000000
H    -5.427000000     6.870000000     1.035000000
H    -5.806000000     8.258000000     1.503000000
O    -3.978000000     8.673000000    -0.850000000
H    -3.792000000     8.415000000    -1.753000000
H    -4.834000000     9.098000000    -0.893000000
O    -4.568000000     1.564000000    -3.486000000
H    -3.624000000     1.685000000    -3.589000000
H    -4.710000000     1.584000000    -2.539000000
O    -6.766000000     0.677000000     0.050000000
H    -6.795000000    -0.253000000    -0.174000000
H    -5.962000000     0.997000000    -0.360000000
O    -3.880000000     8.059000000    -3.473000000
H    -4.796000000     8.272000000    -3.650000000
H    -3.631000000     7.463000000    -4.179000000
O    -4.831000000     6.044000000    -1.133000000
H    -4.438000000     6.846000000    -0.789000000
H    -4.391000000     5.339000000    -0.659000000
O    -7.181000000     6.739000000    -2.653000000
H    -6.969000000     7.622000000    -2.350000000
H    -6.525000000     6.179000000    -2.240000000
O    -5.210000000     6.139000000     4.000000000
H    -6.019000000     6.040000000     3.499000000
H    -4.557000000     5.649000000     3.500000000
O    -6.957000000     3.816000000     5.179000000
H    -6.177000000     3.373000000     4.846000000
H    -6.936000000     4.681000000     4.769000000
O    -7.845000000     4.449000000    -4.036000000
H    -7.760000000     5.199000000    -3.448000000
H    -7.732000000     3.686000000    -3.470000000
O    -3.508000000     5.936000000     1.743000000
H    -2.578000000     5.896000000     1.964000000
H    -3.681000000     5.114000000     1.284000000
O    -7.082000000     0.427000000    -4.447000000
H    -7.307000000    -0.495000000    -4.570000000
H    -6.150000000     0.419000000    -4.228000000
O    -7.227000000     2.942000000    -1.634000000
H    -7.465000000     2.095000000    -1.258000000
H    -6.290000000     3.027000000    -1.459000000
O    -3.307000000     8.546000000     3.264000000
H    -3.874000000     7.791000000     3.106000000
H    -3.103000000     8.879000000     2.391000000
O    -1.799000000     1.952000000    -3.175000000
H    -2.048000000     2.875000000    -3.132000000
H    -1.475000000     1.749000000    -2.298000000
