215
-1453.36377
C    -3.811000000    -3.048000000     0.742000000
H    -4.130000000    -2.116000000     0.283000000
C    -3.110000000    -3.054000000     1.965000000
C    -2.559000000    -4.197000000     2.441000000
H    -2.064000000    -4.231000000     3.408000000
C    -2.882000000    -1.771000000     2.753000000
O    -4.044000000    -0.948000000     2.785000000
H    -2.110000000    -1.257000000     2.161000000
O    -2.388000000    -1.974000000     4.096000000
C    -1.267000000    -1.232000000     4.363000000
C    -0.063000000    -1.825000000     4.087000000
H    -0.074000000    -2.799000000     3.604000000
C     1.100000000    -1.144000000     4.325000000
O     2.266000000    -1.712000000     3.876000000
C     1.096000000     0.202000000     4.761000000
C     2.398000000     1.026000000     4.878000000
H     2.248000000     1.788000000     5.645000000
C     2.790000000     1.663000000     3.514000000
C     2.418000000     2.944000000     3.195000000
H     1.816000000     3.499000000     3.909000000
H     3.276000000     0.490000000     5.245000000
C    -0.136000000     0.826000000     4.969000000
H    -0.169000000     1.846000000     5.345000000
C    -1.305000000     0.098000000     4.783000000
C    -2.686000000     0.767000000     4.844000000
H    -2.681000000     1.558000000     5.596000000
H    -3.422000000     0.034000000     5.183000000
C    -3.152000000     1.278000000     3.509000000
C    -2.830000000     2.628000000     3.145000000
H    -2.264000000     3.209000000     3.869000000
C    -3.832000000     0.414000000     2.667000000
C    -4.143000000     0.928000000     1.409000000
H    -4.660000000     0.358000000     0.642000000
C    -3.795000000     2.275000000     1.011000000
O    -4.112000000     2.702000000    -0.217000000
C    -3.045000000     2.707000000    -1.170000000
C    -3.469000000     2.052000000    -2.489000000
C    -2.619000000     2.161000000    -3.628000000
H    -1.732000000     2.788000000    -3.578000000
C    -4.620000000     1.268000000    -2.641000000
H    -5.294000000     1.111000000    -1.802000000
O    -2.595000000     4.078000000    -1.390000000
H    -2.207000000     2.204000000    -0.667000000
C    -3.094000000     3.110000000     1.890000000
C    -2.693000000     4.518000000     1.560000000
H    -2.556000000     5.077000000     2.488000000
H    -3.421000000     5.087000000     0.979000000
C    -1.429000000     4.522000000     0.737000000
C    -0.267000000     4.730000000     1.481000000
H    -0.408000000     4.771000000     2.558000000
C    -1.419000000     4.389000000    -0.670000000
C    -0.194000000     4.653000000    -1.305000000
H    -0.095000000     4.567000000    -2.384000000
C     0.978000000     4.816000000    -0.515000000
O     2.243000000     4.744000000    -1.219000000
C     2.927000000     3.498000000    -1.237000000
C     3.475000000     3.066000000    -2.582000000
C     2.775000000     3.409000000    -3.708000000
H     1.971000000     4.140000000    -3.712000000
C     4.499000000     2.199000000    -2.664000000
H     5.019000000     1.932000000    -1.748000000
O     3.909000000     3.467000000    -0.154000000
H     2.200000000     2.696000000    -1.036000000
C     0.938000000     4.846000000     0.838000000
C     2.186000000     4.921000000     1.746000000
H     2.000000000     5.381000000     2.719000000
H     2.838000000     5.576000000     1.164000000
C     2.785000000     3.556000000     1.950000000
C     3.581000000     2.814000000     1.058000000
C     3.954000000     1.528000000     1.398000000
H     4.570000000     0.959000000     0.706000000
C     3.537000000     0.898000000     2.587000000
O     3.831000000    -0.406000000     2.829000000
C     2.793000000    -1.277000000     2.661000000
H     1.996000000    -0.983000000     1.962000000
C     3.154000000    -2.531000000     1.822000000
C     2.671000000    -3.790000000     2.097000000
H     2.195000000    -4.049000000     3.039000000
C     3.933000000    -2.355000000     0.672000000
H     4.258000000    -1.348000000     0.423000000
C     4.294000000    -3.435000000    -0.202000000
O     5.201000000    -3.266000000    -1.294000000
C     3.728000000    -4.667000000     0.086000000
H     3.949000000    -5.510000000    -0.564000000
C     2.983000000    -4.826000000     1.269000000
O     2.464000000    -6.121000000     1.334000000
C     1.503000000    -6.532000000     2.209000000
C     0.225000000    -6.398000000     1.769000000
H    -0.049000000    -5.876000000     0.856000000
C     1.790000000    -7.136000000     3.403000000
H     2.827000000    -7.155000000     3.729000000
C     0.760000000    -7.508000000     4.289000000
H     1.052000000    -7.964000000     5.231000000
C    -0.555000000    -7.296000000     3.856000000
H    -1.367000000    -7.608000000     4.508000000
C    -0.847000000    -6.741000000     2.644000000
O    -2.153000000    -6.584000000     2.271000000
C    -2.656000000    -5.427000000     1.724000000
C    -3.293000000    -5.426000000     0.501000000
H    -3.310000000    -6.296000000    -0.151000000
C    -3.862000000    -4.226000000     0.008000000
O    -4.344000000    -4.198000000    -1.280000000
C    -5.381000000    -3.372000000    -1.653000000
C    -5.127000000    -2.353000000    -2.553000000
H    -4.152000000    -2.254000000    -3.024000000
C    -6.659000000    -3.569000000    -1.187000000
H    -6.808000000    -4.402000000    -0.506000000
C    -7.643000000    -2.588000000    -1.365000000
H    -8.507000000    -2.581000000    -0.705000000
C    -7.361000000    -1.449000000    -2.166000000
H    -8.048000000    -0.613000000    -2.270000000
C    -6.111000000    -1.380000000    -2.842000000
O    -5.880000000    -0.394000000    -3.832000000
C    -4.868000000     0.568000000    -3.796000000
C    -4.074000000     0.637000000    -4.871000000
H    -4.203000000     0.011000000    -5.750000000
C    -2.961000000     1.437000000    -4.793000000
O    -2.045000000     1.443000000    -5.800000000
C    -1.246000000     2.544000000    -6.120000000
C     0.155000000     2.299000000    -6.119000000
H     0.615000000     1.317000000    -6.035000000
C    -1.770000000     3.831000000    -6.078000000
H    -2.831000000     3.969000000    -5.885000000
C    -0.824000000     4.888000000    -6.078000000
H    -1.174000000     5.910000000    -5.956000000
C     0.558000000     4.640000000    -6.036000000
H     1.310000000     5.417000000    -6.145000000
C     1.042000000     3.359000000    -6.172000000
O     2.407000000     3.211000000    -6.096000000
C     3.091000000     2.900000000    -4.943000000
C     4.183000000     2.052000000    -5.044000000
H     4.617000000     1.774000000    -6.001000000
C     4.883000000     1.666000000    -3.904000000
O     5.814000000     0.659000000    -3.864000000
C     6.209000000    -0.145000000    -2.850000000
C     7.492000000    -0.010000000    -2.380000000
H     8.124000000     0.777000000    -2.785000000
C     7.870000000    -0.831000000    -1.305000000
H     8.789000000    -0.494000000    -0.832000000
C     7.114000000    -1.914000000    -0.919000000
H     7.429000000    -2.616000000    -0.152000000
C     5.916000000    -2.146000000    -1.603000000
C     5.421000000    -1.243000000    -2.509000000
H     4.531000000    -1.473000000    -3.089000000
C     0.835000000    -0.352000000    -1.920000000
H     1.004000000     0.257000000    -2.804000000
C     0.622000000     0.261000000    -0.724000000
H     0.654000000     1.347000000    -0.684000000
C     0.250000000    -0.478000000     0.394000000
H     0.181000000     0.035000000     1.280000000
C     0.139000000    -1.877000000     0.327000000
H    -0.168000000    -2.391000000     1.234000000
C     0.313000000    -2.541000000    -0.884000000
H     0.173000000    -3.616000000    -0.970000000
C     0.724000000    -1.785000000    -2.014000000
C     0.919000000    -2.342000000    -3.426000000
O     1.111000000    -3.516000000    -3.656000000
O     1.027000000    -1.583000000    -4.395000000
O     3.537000000    -4.514000000    -8.080000000
H     2.744000000    -4.118000000    -7.718000000
H     4.175000000    -4.468000000    -7.367000000
O    -1.315000000    -1.500000000    -5.843000000
H    -0.545000000    -1.208000000    -5.356000000
H    -1.915000000    -1.823000000    -5.170000000
O     1.821000000    -8.037000000    -0.770000000
H     2.262000000    -7.564000000    -0.064000000
H     1.212000000    -7.399000000    -1.141000000
O     4.839000000    -1.176000000    -6.680000000
H     5.443000000    -1.750000000    -6.208000000
H     5.378000000    -0.766000000    -7.356000000
O    -1.488000000    -1.511000000    -8.546000000
H    -1.399000000    -1.671000000    -7.606000000
H    -2.392000000    -1.215000000    -8.653000000
O    -3.822000000    -6.249000000    -4.573000000
H    -3.624000000    -5.332000000    -4.761000000
H    -2.996000000    -6.612000000    -4.253000000
O     0.359000000    -5.884000000    -1.866000000
H     1.030000000    -5.420000000    -2.366000000
H    -0.463000000    -5.658000000    -2.302000000
O     0.608000000    -5.745000000    -8.513000000
H     0.760000000    -5.642000000    -7.573000000
H    -0.033000000    -5.066000000    -8.727000000
O     3.694000000    -7.299000000    -4.191000000
H     3.555000000    -6.379000000    -3.970000000
H     4.217000000    -7.276000000    -4.993000000
O    -1.444000000    -4.744000000    -4.450000000
H    -0.640000000    -4.226000000    -4.443000000
H    -1.146000000    -5.647000000    -4.566000000
O    -3.879000000    -5.185000000    -7.701000000
H    -4.109000000    -5.401000000    -8.605000000
H    -2.952000000    -4.950000000    -7.740000000
O     1.091000000    -0.294000000    -9.100000000
H     0.289000000    -0.812000000    -9.173000000
H     1.402000000    -0.460000000    -8.210000000
O     2.009000000    -0.988000000    -6.735000000
H     1.692000000    -1.049000000    -5.834000000
H     2.962000000    -0.961000000    -6.653000000
O     5.641000000    -4.547000000    -6.036000000
H     4.997000000    -4.432000000    -5.336000000
H     6.162000000    -3.745000000    -6.016000000
O     3.863000000    -4.542000000    -3.887000000
H     4.403000000    -4.454000000    -3.101000000
H     3.007000000    -4.200000000    -3.629000000
O     2.390000000    -7.593000000    -6.986000000
H     3.346000000    -7.619000000    -6.935000000
H     2.205000000    -7.035000000    -7.742000000
O    -1.748000000    -4.090000000    -9.491000000
H    -2.138000000    -4.142000000   -10.364000000
H    -1.415000000    -3.195000000    -9.430000000
O     1.411000000    -3.545000000    -6.739000000
H     1.303000000    -3.536000000    -5.788000000
H     1.431000000    -2.621000000    -6.987000000
O    -1.123000000    -7.581000000    -4.363000000
H    -1.169000000    -8.030000000    -3.519000000
H    -1.131000000    -8.287000000    -5.010000000
