215
-1443.73503
C    -4.845000000    -2.891000000    -0.695000000
H    -5.448000000    -2.007000000    -0.506000000
C    -3.880000000    -3.214000000     0.288000000
C    -3.149000000    -4.429000000     0.117000000
H    -2.432000000    -4.795000000     0.848000000
C    -3.506000000    -2.151000000     1.365000000
O    -4.576000000    -1.407000000     1.843000000
H    -2.660000000    -1.514000000     1.069000000
O    -3.081000000    -2.929000000     2.540000000
C    -2.029000000    -2.441000000     3.314000000
C    -0.814000000    -3.063000000     3.141000000
H    -0.774000000    -3.874000000     2.419000000
C     0.291000000    -2.626000000     3.788000000
O     1.515000000    -3.161000000     3.449000000
C     0.191000000    -1.465000000     4.603000000
C     1.510000000    -0.812000000     5.271000000
H     1.214000000    -0.272000000     6.173000000
C     2.356000000     0.078000000     4.278000000
C     2.010000000     1.424000000     4.298000000
H     1.289000000     1.806000000     5.016000000
H     2.055000000    -1.711000000     5.567000000
C    -1.040000000    -0.853000000     4.841000000
H    -1.034000000     0.063000000     5.426000000
C    -2.201000000    -1.369000000     4.225000000
C    -3.562000000    -0.651000000     4.378000000
H    -3.646000000    -0.050000000     5.285000000
H    -4.246000000    -1.502000000     4.390000000
C    -3.741000000     0.346000000     3.260000000
C    -3.321000000     1.654000000     3.442000000
H    -2.872000000     1.937000000     4.390000000
C    -4.315000000    -0.066000000     2.019000000
C    -4.571000000     0.866000000     1.000000000
H    -5.023000000     0.521000000     0.074000000
C    -4.003000000     2.168000000     1.133000000
O    -4.025000000     3.083000000     0.070000000
C    -2.747000000     3.323000000    -0.551000000
C    -2.786000000     3.008000000    -2.071000000
C    -1.727000000     3.322000000    -2.889000000
H    -0.969000000     3.938000000    -2.413000000
C    -3.770000000     2.156000000    -2.643000000
H    -4.545000000     1.806000000    -1.966000000
O    -2.130000000     4.529000000    -0.195000000
H    -2.076000000     2.574000000    -0.106000000
C    -3.430000000     2.572000000     2.372000000
C    -2.855000000     4.015000000     2.535000000
H    -2.853000000     4.127000000     3.622000000
H    -3.595000000     4.732000000     2.174000000
C    -1.458000000     4.224000000     2.102000000
C    -0.385000000     4.027000000     2.916000000
H    -0.565000000     3.820000000     3.968000000
C    -1.175000000     4.483000000     0.774000000
C     0.114000000     4.585000000     0.305000000
H     0.268000000     4.652000000    -0.769000000
C     1.198000000     4.333000000     1.148000000
O     2.515000000     4.414000000     0.595000000
C     3.187000000     3.080000000     0.368000000
C     4.055000000     3.222000000    -0.917000000
C     3.558000000     3.759000000    -2.076000000
H     2.656000000     4.332000000    -1.878000000
C     5.200000000     2.385000000    -1.060000000
H     5.592000000     1.906000000    -0.167000000
O     4.053000000     2.641000000     1.459000000
H     2.402000000     2.319000000     0.246000000
C     0.959000000     4.070000000     2.513000000
C     2.109000000     3.811000000     3.481000000
H     1.753000000     3.961000000     4.502000000
H     2.877000000     4.564000000     3.295000000
C     2.630000000     2.386000000     3.438000000
C     3.651000000     1.927000000     2.595000000
C     3.981000000     0.546000000     2.570000000
H     4.604000000     0.167000000     1.764000000
C     3.322000000    -0.353000000     3.447000000
O     3.424000000    -1.709000000     3.297000000
C     2.363000000    -2.436000000     2.492000000
H     1.773000000    -1.641000000     2.014000000
C     2.994000000    -3.352000000     1.441000000
C     2.383000000    -4.546000000     1.092000000
H     1.442000000    -4.840000000     1.549000000
C     4.104000000    -2.882000000     0.750000000
H     4.553000000    -1.908000000     0.924000000
C     4.579000000    -3.665000000    -0.334000000
O     5.385000000    -3.110000000    -1.292000000
C     3.869000000    -4.823000000    -0.708000000
H     4.244000000    -5.494000000    -1.477000000
C     2.843000000    -5.317000000     0.041000000
O     2.184000000    -6.486000000    -0.308000000
C     0.892000000    -6.799000000    -0.053000000
C    -0.140000000    -6.426000000    -0.914000000
H     0.018000000    -6.062000000    -1.927000000
C     0.563000000    -7.373000000     1.189000000
H     1.433000000    -7.728000000     1.736000000
C    -0.755000000    -7.577000000     1.564000000
H    -0.998000000    -8.041000000     2.516000000
C    -1.768000000    -7.190000000     0.696000000
H    -2.770000000    -7.528000000     0.947000000
C    -1.494000000    -6.638000000    -0.530000000
O    -2.518000000    -6.206000000    -1.374000000
C    -3.364000000    -5.192000000    -1.059000000
C    -4.370000000    -4.891000000    -1.964000000
H    -4.592000000    -5.407000000    -2.894000000
C    -5.121000000    -3.765000000    -1.726000000
O    -6.066000000    -3.364000000    -2.689000000
C    -6.351000000    -2.054000000    -2.992000000
C    -5.462000000    -1.259000000    -3.727000000
H    -4.559000000    -1.690000000    -4.153000000
C    -7.517000000    -1.514000000    -2.522000000
H    -8.271000000    -2.151000000    -2.069000000
C    -7.767000000    -0.143000000    -2.778000000
H    -8.724000000     0.233000000    -2.425000000
C    -6.774000000     0.694000000    -3.269000000
H    -7.000000000     1.735000000    -3.489000000
C    -5.595000000     0.104000000    -3.739000000
O    -4.619000000     0.828000000    -4.485000000
C    -3.699000000     1.698000000    -3.943000000
C    -2.571000000     2.030000000    -4.722000000
H    -2.314000000     1.638000000    -5.703000000
C    -1.596000000     2.876000000    -4.174000000
O    -0.546000000     3.093000000    -5.046000000
C     0.310000000     4.138000000    -4.962000000
C     1.653000000     3.819000000    -4.629000000
H     1.949000000     2.835000000    -4.273000000
C    -0.006000000     5.381000000    -5.500000000
H    -1.044000000     5.662000000    -5.657000000
C     0.956000000     6.323000000    -5.562000000
H     0.739000000     7.342000000    -5.870000000
C     2.308000000     6.025000000    -5.235000000
H     3.138000000     6.727000000    -5.254000000
C     2.598000000     4.824000000    -4.634000000
O     3.880000000     4.527000000    -4.395000000
C     4.267000000     3.851000000    -3.255000000
C     5.480000000     3.098000000    -3.298000000
H     5.944000000     2.967000000    -4.272000000
C     5.899000000     2.314000000    -2.262000000
O     6.924000000     1.358000000    -2.458000000
C     6.955000000     0.231000000    -1.737000000
C     7.777000000     0.251000000    -0.652000000
H     8.447000000     1.070000000    -0.403000000
C     7.893000000    -0.846000000     0.199000000
H     8.608000000    -0.801000000     1.016000000
C     7.174000000    -2.051000000    -0.020000000
H     7.350000000    -2.984000000     0.509000000
C     6.250000000    -2.029000000    -1.072000000
C     6.151000000    -0.907000000    -1.942000000
H     5.484000000    -0.973000000    -2.798000000
C     1.775000000    -0.822000000    -2.305000000
H     2.415000000    -0.568000000    -3.145000000
C     1.444000000     0.153000000    -1.350000000
H     1.809000000     1.175000000    -1.411000000
C     0.555000000    -0.136000000    -0.343000000
H     0.250000000     0.658000000     0.279000000
C     0.121000000    -1.474000000    -0.154000000
H    -0.670000000    -1.722000000     0.550000000
C     0.597000000    -2.452000000    -0.998000000
H     0.290000000    -3.489000000    -0.889000000
C     1.395000000    -2.178000000    -2.136000000
C     1.926000000    -3.198000000    -3.081000000
O     1.378000000    -4.319000000    -3.176000000
O     2.914000000    -3.061000000    -3.787000000
O    -1.910000000    -0.892000000    -2.945000000
H    -2.791000000    -0.538000000    -2.824000000
H    -1.419000000    -0.577000000    -2.186000000
O     2.015000000    -6.656000000    -7.029000000
H     2.840000000    -7.031000000    -7.339000000
H     2.261000000    -6.138000000    -6.263000000
O     4.524000000    -3.699000000    -7.530000000
H     4.043000000    -3.545000000    -8.343000000
H     5.424000000    -3.863000000    -7.811000000
O    -0.687000000    -0.580000000    -5.337000000
H    -0.940000000    -0.769000000    -4.433000000
H     0.002000000    -1.216000000    -5.531000000
O    -2.234000000    -4.905000000    -6.773000000
H    -2.639000000    -4.046000000    -6.895000000
H    -1.413000000    -4.720000000    -6.319000000
O     3.434000000    -5.080000000    -5.423000000
H     3.867000000    -4.590000000    -6.121000000
H     3.313000000    -4.440000000    -4.721000000
O     1.996000000     1.006000000    -7.358000000
H     2.030000000     0.224000000    -6.807000000
H     2.705000000     1.560000000    -7.032000000
O     2.019000000    -6.831000000    -3.394000000
H     1.892000000    -5.889000000    -3.503000000
H     1.615000000    -7.031000000    -2.549000000
O    -2.271000000    -3.318000000    -4.404000000
H    -1.433000000    -3.737000000    -4.603000000
H    -2.149000000    -2.942000000    -3.532000000
O     1.738000000    -1.936000000    -5.808000000
H     1.833000000    -2.585000000    -6.505000000
H     2.269000000    -2.276000000    -5.088000000
O     5.442000000    -6.524000000    -3.953000000
H     4.683000000    -6.145000000    -4.398000000
H     5.921000000    -5.769000000    -3.613000000
O     0.104000000    -5.681000000    -8.838000000
H     0.524000000    -6.157000000    -8.122000000
H    -0.464000000    -5.046000000    -8.403000000
O     0.466000000    -8.559000000    -6.157000000
H     1.173000000    -8.003000000    -6.484000000
H    -0.288000000    -8.334000000    -6.703000000
O     4.988000000    -1.918000000    -5.026000000
H     4.195000000    -2.414000000    -4.822000000
H     5.332000000    -2.331000000    -5.818000000
O     6.079000000     0.337000000    -5.931000000
H     5.505000000     0.940000000    -6.405000000
H     5.480000000    -0.253000000    -5.473000000
O     2.909000000    -9.557000000    -3.331000000
H     2.212000000    -8.938000000    -3.548000000
H     3.701000000    -9.020000000    -3.285000000
O     7.153000000    -4.436000000    -2.990000000
H     8.026000000    -4.068000000    -2.857000000
H     6.576000000    -3.878000000    -2.468000000
O    -1.218000000    -8.423000000    -3.888000000
H    -0.437000000    -8.456000000    -4.439000000
H    -0.916000000    -8.714000000    -3.027000000
O    -0.102000000    -4.973000000    -5.281000000
H     0.595000000    -4.631000000    -4.720000000
H     0.054000000    -5.917000000    -5.310000000
