215
-1445.35724
C    -4.983000000    -2.550000000     0.600000000
H    -5.543000000    -1.620000000     0.650000000
C    -3.838000000    -2.664000000     1.455000000
C    -3.122000000    -3.849000000     1.368000000
H    -2.202000000    -3.995000000     1.927000000
C    -3.350000000    -1.536000000     2.373000000
O    -4.403000000    -0.650000000     2.707000000
H    -2.597000000    -0.925000000     1.854000000
O    -2.749000000    -2.017000000     3.614000000
C    -1.630000000    -1.477000000     4.073000000
C    -0.436000000    -2.196000000     3.972000000
H    -0.270000000    -3.181000000     3.543000000
C     0.729000000    -1.604000000     4.359000000
O     1.906000000    -2.266000000     4.023000000
C     0.795000000    -0.261000000     4.871000000
C     2.087000000     0.429000000     5.137000000
H     1.987000000     1.214000000     5.889000000
C     2.696000000     1.101000000     3.930000000
C     2.327000000     2.370000000     3.557000000
H     1.624000000     2.936000000     4.163000000
H     2.809000000    -0.284000000     5.540000000
C    -0.404000000     0.333000000     5.170000000
H    -0.264000000     1.348000000     5.534000000
C    -1.603000000    -0.183000000     4.622000000
C    -2.868000000     0.615000000     4.815000000
H    -2.744000000     1.472000000     5.481000000
H    -3.779000000     0.100000000     5.127000000
C    -3.244000000     1.309000000     3.520000000
C    -2.685000000     2.573000000     3.248000000
H    -2.062000000     3.047000000     4.003000000
C    -4.129000000     0.722000000     2.672000000
C    -4.349000000     1.357000000     1.430000000
H    -4.887000000     0.761000000     0.697000000
C    -3.643000000     2.483000000     1.079000000
O    -3.676000000     2.849000000    -0.248000000
C    -2.526000000     2.770000000    -1.206000000
C    -2.971000000     2.425000000    -2.608000000
C    -2.322000000     3.029000000    -3.682000000
H    -1.548000000     3.771000000    -3.503000000
C    -3.858000000     1.430000000    -2.821000000
H    -4.292000000     0.902000000    -1.976000000
O    -1.904000000     4.099000000    -1.141000000
H    -1.750000000     2.030000000    -0.960000000
C    -2.894000000     3.167000000     2.014000000
C    -2.312000000     4.554000000     1.648000000
H    -2.236000000     5.165000000     2.550000000
H    -2.991000000     5.101000000     0.991000000
C    -0.949000000     4.516000000     0.979000000
C     0.141000000     4.552000000     1.775000000
H    -0.022000000     4.640000000     2.846000000
C    -0.814000000     4.347000000    -0.383000000
C     0.417000000     4.146000000    -0.962000000
H     0.496000000     3.782000000    -1.983000000
C     1.540000000     4.141000000    -0.176000000
O     2.763000000     3.920000000    -0.738000000
C     3.269000000     2.630000000    -0.544000000
C     3.777000000     2.025000000    -1.865000000
C     2.979000000     2.229000000    -3.001000000
H     2.019000000     2.733000000    -2.923000000
C     5.002000000     1.355000000    -1.983000000
H     5.600000000     1.127000000    -1.104000000
O     4.312000000     2.693000000     0.435000000
H     2.489000000     1.900000000    -0.282000000
C     1.410000000     4.442000000     1.197000000
C     2.685000000     4.383000000     2.113000000
H     2.498000000     4.983000000     3.006000000
H     3.576000000     4.865000000     1.706000000
C     3.014000000     2.948000000     2.442000000
C     3.907000000     2.220000000     1.642000000
C     4.188000000     0.909000000     2.049000000
H     4.824000000     0.299000000     1.413000000
C     3.560000000     0.370000000     3.163000000
O     3.755000000    -1.003000000     3.330000000
C     2.694000000    -1.791000000     2.892000000
H     2.045000000    -1.130000000     2.298000000
C     3.026000000    -2.913000000     1.903000000
C     2.319000000    -4.150000000     1.872000000
H     1.444000000    -4.246000000     2.509000000
C     4.031000000    -2.783000000     0.874000000
H     4.508000000    -1.807000000     0.836000000
C     4.293000000    -3.811000000     0.018000000
O     5.287000000    -3.646000000    -0.931000000
C     3.623000000    -5.023000000     0.112000000
H     3.845000000    -5.857000000    -0.549000000
C     2.626000000    -5.186000000     1.023000000
O     1.966000000    -6.415000000     1.082000000
C     0.663000000    -6.530000000     1.454000000
C    -0.364000000    -6.234000000     0.544000000
H    -0.144000000    -5.774000000    -0.416000000
C     0.327000000    -6.992000000     2.735000000
H     1.097000000    -7.028000000     3.501000000
C    -1.015000000    -7.176000000     3.142000000
H    -1.199000000    -7.676000000     4.089000000
C    -1.946000000    -6.915000000     2.168000000
H    -3.019000000    -7.000000000     2.315000000
C    -1.645000000    -6.354000000     0.951000000
O    -2.667000000    -5.963000000     0.112000000
C    -3.393000000    -4.798000000     0.377000000
C    -4.588000000    -4.710000000    -0.337000000
H    -4.723000000    -5.466000000    -1.107000000
C    -5.399000000    -3.576000000    -0.204000000
O    -6.373000000    -3.399000000    -1.228000000
C    -6.641000000    -2.211000000    -1.884000000
C    -5.647000000    -1.615000000    -2.662000000
H    -4.691000000    -2.123000000    -2.759000000
C    -7.900000000    -1.609000000    -1.738000000
H    -8.659000000    -2.231000000    -1.271000000
C    -8.158000000    -0.416000000    -2.393000000
H    -9.086000000     0.133000000    -2.256000000
C    -7.197000000     0.131000000    -3.242000000
H    -7.517000000     0.961000000    -3.866000000
C    -5.971000000    -0.525000000    -3.497000000
O    -5.067000000     0.033000000    -4.428000000
C    -4.088000000     0.958000000    -4.124000000
C    -3.387000000     1.541000000    -5.204000000
H    -3.618000000     1.258000000    -6.228000000
C    -2.454000000     2.596000000    -4.967000000
O    -1.919000000     3.195000000    -6.058000000
C    -0.599000000     3.567000000    -5.923000000
C     0.368000000     2.637000000    -5.774000000
H     0.169000000     1.579000000    -5.930000000
C    -0.268000000     4.948000000    -5.950000000
H    -1.001000000     5.731000000    -6.128000000
C     1.093000000     5.319000000    -5.780000000
H     1.416000000     6.357000000    -5.777000000
C     2.063000000     4.397000000    -5.536000000
H     3.108000000     4.669000000    -5.410000000
C     1.693000000     3.033000000    -5.579000000
O     2.587000000     1.983000000    -5.311000000
C     3.456000000     1.848000000    -4.241000000
C     4.659000000     1.165000000    -4.387000000
H     4.973000000     0.843000000    -5.377000000
C     5.446000000     0.936000000    -3.220000000
O     6.710000000     0.346000000    -3.260000000
C     7.021000000    -0.653000000    -2.298000000
C     7.977000000    -0.482000000    -1.386000000
H     8.580000000     0.422000000    -1.351000000
C     8.105000000    -1.302000000    -0.271000000
H     8.866000000    -1.016000000     0.452000000
C     7.119000000    -2.301000000    -0.038000000
H     7.150000000    -2.939000000     0.842000000
C     6.141000000    -2.574000000    -0.989000000
C     6.118000000    -1.732000000    -2.148000000
H     5.337000000    -1.793000000    -2.902000000
C     0.886000000    -0.644000000    -2.446000000
H     1.246000000    -0.252000000    -3.393000000
C     0.287000000     0.220000000    -1.549000000
H     0.281000000     1.281000000    -1.783000000
C    -0.227000000    -0.251000000    -0.313000000
H    -0.778000000     0.305000000     0.405000000
C    -0.056000000    -1.607000000     0.004000000
H    -0.288000000    -1.987000000     0.996000000
C     0.498000000    -2.414000000    -0.976000000
H     0.644000000    -3.433000000    -0.627000000
C     1.028000000    -1.977000000    -2.222000000
C     1.605000000    -2.980000000    -3.193000000
O     1.466000000    -4.146000000    -3.052000000
O     2.123000000    -2.593000000    -4.304000000
O     5.998000000    -5.736000000    -6.779000000
H     6.399000000    -6.593000000    -6.634000000
H     6.286000000    -5.208000000    -6.034000000
O    -1.696000000    -2.025000000    -4.550000000
H    -2.002000000    -2.929000000    -4.476000000
H    -1.263000000    -1.849000000    -3.715000000
O     1.402000000    -7.582000000    -5.407000000
H     1.135000000    -8.484000000    -5.230000000
H     0.603000000    -7.068000000    -5.289000000
O    -1.293000000    -1.384000000    -7.118000000
H    -1.725000000    -1.083000000    -6.319000000
H    -1.395000000    -2.336000000    -7.101000000
O    -4.827000000    -4.995000000    -4.464000000
H    -4.113000000    -4.661000000    -3.921000000
H    -4.754000000    -4.505000000    -5.284000000
O     3.271000000    -5.766000000    -3.920000000
H     2.589000000    -5.229000000    -3.517000000
H     2.859000000    -6.128000000    -4.704000000
O     3.459000000    -5.272000000    -6.911000000
H     4.402000000    -5.431000000    -6.955000000
H     3.072000000    -5.984000000    -7.420000000
O    -0.565000000    -5.995000000    -3.026000000
H     0.208000000    -5.432000000    -3.069000000
H    -0.291000000    -6.737000000    -2.487000000
O    -2.504000000    -4.161000000    -3.153000000
H    -1.807000000    -4.817000000    -3.178000000
H    -2.289000000    -3.611000000    -2.400000000
O    -1.686000000    -5.531000000    -6.723000000
H    -2.229000000    -4.806000000    -7.033000000
H    -0.851000000    -5.124000000    -6.494000000
O     2.571000000    -1.812000000    -8.151000000
H     1.764000000    -2.298000000    -7.984000000
H     3.038000000    -1.830000000    -7.316000000
O     0.353000000    -8.110000000    -1.802000000
H     0.730000000    -8.203000000    -0.927000000
H     0.430000000    -8.982000000    -2.190000000
O    -1.886000000    -7.652000000    -4.981000000
H    -2.008000000    -7.013000000    -5.683000000
H    -1.509000000    -7.147000000    -4.260000000
O     7.442000000    -4.354000000    -4.722000000
H     8.255000000    -4.335000000    -4.216000000
H     6.808000000    -4.772000000    -4.140000000
O     4.061000000    -2.548000000    -6.072000000
H     3.432000000    -2.382000000    -5.370000000
H     3.969000000    -3.482000000    -6.260000000
O     6.729000000    -2.141000000    -6.537000000
H     5.831000000    -2.229000000    -6.215000000
H     7.262000000    -2.597000000    -5.886000000
O     5.829000000    -5.847000000    -2.906000000
H     5.033000000    -5.859000000    -3.437000000
H     5.566000000    -5.422000000    -2.090000000
O     3.878000000    -8.651000000    -6.163000000
H     3.607000000    -8.851000000    -7.059000000
H     3.211000000    -8.045000000    -5.840000000
O     1.012000000    -4.315000000    -6.163000000
H     1.234000000    -3.729000000    -5.440000000
H     1.855000000    -4.654000000    -6.464000000
