215
-1444.02716
C    -4.918000000    -2.498000000    -0.639000000
H    -5.615000000    -1.712000000    -0.359000000
C    -3.872000000    -2.877000000     0.187000000
C    -3.023000000    -3.876000000    -0.211000000
H    -2.097000000    -4.086000000     0.319000000
C    -3.594000000    -2.092000000     1.438000000
O    -4.665000000    -1.215000000     1.753000000
H    -2.780000000    -1.427000000     1.113000000
O    -3.076000000    -2.957000000     2.528000000
C    -2.136000000    -2.543000000     3.435000000
C    -0.840000000    -3.135000000     3.192000000
H    -0.694000000    -3.954000000     2.492000000
C     0.264000000    -2.677000000     3.895000000
O     1.477000000    -3.235000000     3.526000000
C     0.109000000    -1.492000000     4.675000000
C     1.301000000    -0.775000000     5.207000000
H     1.129000000    -0.168000000     6.099000000
C     2.017000000     0.155000000     4.215000000
C     1.711000000     1.529000000     4.241000000
H     0.912000000     1.872000000     4.893000000
H     2.031000000    -1.500000000     5.575000000
C    -1.095000000    -0.886000000     4.837000000
H    -1.269000000    -0.068000000     5.530000000
C    -2.233000000    -1.355000000     4.182000000
C    -3.622000000    -0.628000000     4.386000000
H    -3.626000000    -0.048000000     5.311000000
H    -4.370000000    -1.419000000     4.473000000
C    -3.905000000     0.380000000     3.295000000
C    -3.314000000     1.646000000     3.446000000
H    -2.803000000     1.978000000     4.345000000
C    -4.462000000     0.091000000     2.042000000
C    -4.628000000     1.042000000     0.976000000
H    -4.953000000     0.686000000     0.002000000
C    -4.124000000     2.320000000     1.185000000
O    -3.972000000     3.154000000     0.117000000
C    -2.705000000     3.038000000    -0.558000000
C    -2.736000000     2.840000000    -2.032000000
C    -1.638000000     3.202000000    -2.807000000
H    -0.766000000     3.631000000    -2.319000000
C    -3.794000000     2.095000000    -2.594000000
H    -4.603000000     1.754000000    -1.954000000
O    -2.050000000     4.305000000    -0.219000000
H    -2.066000000     2.312000000    -0.033000000
C    -3.466000000     2.625000000     2.413000000
C    -2.785000000     3.929000000     2.642000000
H    -2.789000000     4.099000000     3.721000000
H    -3.432000000     4.705000000     2.230000000
C    -1.379000000     4.030000000     2.064000000
C    -0.266000000     4.055000000     2.969000000
H    -0.358000000     3.915000000     4.043000000
C    -1.075000000     4.280000000     0.723000000
C     0.232000000     4.440000000     0.259000000
H     0.419000000     4.689000000    -0.782000000
C     1.318000000     4.373000000     1.181000000
O     2.589000000     4.257000000     0.723000000
C     3.143000000     2.931000000     0.564000000
C     3.869000000     2.848000000    -0.808000000
C     3.573000000     3.631000000    -1.939000000
H     2.856000000     4.447000000    -1.898000000
C     4.901000000     1.905000000    -0.942000000
H     5.223000000     1.260000000    -0.128000000
O     4.028000000     2.619000000     1.632000000
H     2.286000000     2.253000000     0.443000000
C     1.010000000     4.144000000     2.547000000
C     2.174000000     3.870000000     3.554000000
H     1.923000000     4.195000000     4.566000000
H     3.027000000     4.459000000     3.212000000
C     2.457000000     2.369000000     3.472000000
C     3.474000000     1.831000000     2.603000000
C     3.652000000     0.478000000     2.564000000
H     4.388000000    -0.067000000     1.978000000
C     2.994000000    -0.378000000     3.443000000
O     3.279000000    -1.704000000     3.433000000
C     2.410000000    -2.529000000     2.656000000
H     1.819000000    -1.818000000     2.061000000
C     3.075000000    -3.388000000     1.552000000
C     2.349000000    -4.526000000     1.146000000
H     1.380000000    -4.780000000     1.567000000
C     4.331000000    -3.099000000     1.074000000
H     4.902000000    -2.272000000     1.488000000
C     4.809000000    -3.889000000    -0.012000000
O     5.998000000    -3.713000000    -0.673000000
C     4.056000000    -4.995000000    -0.459000000
H     4.402000000    -5.629000000    -1.272000000
C     2.823000000    -5.326000000     0.091000000
O     2.141000000    -6.380000000    -0.464000000
C     0.857000000    -6.641000000    -0.194000000
C    -0.057000000    -6.099000000    -1.094000000
H     0.285000000    -5.620000000    -2.009000000
C     0.459000000    -7.325000000     0.908000000
H     1.144000000    -7.803000000     1.604000000
C    -0.931000000    -7.552000000     1.100000000
H    -1.241000000    -8.188000000     1.925000000
C    -1.852000000    -6.863000000     0.282000000
H    -2.922000000    -6.900000000     0.472000000
C    -1.388000000    -6.211000000    -0.933000000
O    -2.306000000    -5.554000000    -1.785000000
C    -3.196000000    -4.533000000    -1.445000000
C    -4.442000000    -4.286000000    -2.102000000
H    -4.647000000    -4.888000000    -2.983000000
C    -5.252000000    -3.227000000    -1.730000000
O    -6.317000000    -2.854000000    -2.495000000
C    -6.618000000    -1.496000000    -2.801000000
C    -5.606000000    -0.801000000    -3.494000000
H    -4.639000000    -1.272000000    -3.649000000
C    -7.912000000    -0.920000000    -2.695000000
H    -8.697000000    -1.429000000    -2.140000000
C    -8.121000000     0.354000000    -3.221000000
H    -9.087000000     0.785000000    -2.967000000
C    -7.096000000     1.082000000    -3.890000000
H    -7.241000000     2.028000000    -4.406000000
C    -5.825000000     0.498000000    -4.014000000
O    -4.741000000     1.126000000    -4.600000000
C    -3.760000000     1.792000000    -3.944000000
C    -2.632000000     2.043000000    -4.738000000
H    -2.569000000     1.599000000    -5.729000000
C    -1.581000000     2.740000000    -4.153000000
O    -0.442000000     2.867000000    -4.954000000
C     0.440000000     3.891000000    -4.897000000
C     1.747000000     3.649000000    -4.495000000
H     2.081000000     2.690000000    -4.105000000
C     0.084000000     5.180000000    -5.359000000
H    -0.973000000     5.373000000    -5.528000000
C     1.093000000     6.140000000    -5.571000000
H     0.775000000     7.160000000    -5.769000000
C     2.404000000     5.912000000    -5.210000000
H     3.173000000     6.671000000    -5.333000000
C     2.726000000     4.706000000    -4.569000000
O     4.066000000     4.437000000    -4.234000000
C     4.348000000     3.620000000    -3.113000000
C     5.332000000     2.605000000    -3.231000000
H     5.729000000     2.440000000    -4.230000000
C     5.627000000     1.748000000    -2.134000000
O     6.561000000     0.781000000    -2.259000000
C     6.954000000    -0.217000000    -1.415000000
C     8.144000000    -0.147000000    -0.743000000
H     8.644000000     0.818000000    -0.709000000
C     8.660000000    -1.223000000    -0.155000000
H     9.663000000    -1.182000000     0.263000000
C     7.938000000    -2.422000000    -0.085000000
H     8.303000000    -3.312000000     0.421000000
C     6.698000000    -2.506000000    -0.716000000
C     6.241000000    -1.434000000    -1.484000000
H     5.206000000    -1.424000000    -1.817000000
C     2.129000000    -0.433000000    -2.227000000
H     2.969000000    -0.153000000    -2.857000000
C     1.444000000     0.535000000    -1.492000000
H     1.427000000     1.601000000    -1.703000000
C     0.544000000     0.169000000    -0.546000000
H     0.017000000     0.834000000     0.146000000
C     0.354000000    -1.225000000    -0.302000000
H    -0.338000000    -1.468000000     0.501000000
C     0.835000000    -2.151000000    -1.132000000
H     0.542000000    -3.189000000    -0.995000000
C     1.760000000    -1.789000000    -2.136000000
C     2.499000000    -2.884000000    -2.977000000
O     2.040000000    -3.977000000    -3.069000000
O     3.345000000    -2.548000000    -3.767000000
O    -1.273000000    -0.771000000    -3.725000000
H    -0.854000000     0.089000000    -3.694000000
H    -1.094000000    -1.156000000    -2.867000000
O     2.871000000    -6.383000000    -8.260000000
H     3.244000000    -7.262000000    -8.330000000
H     3.171000000    -6.063000000    -7.409000000
O     3.501000000    -2.400000000    -8.066000000
H     2.801000000    -2.089000000    -7.491000000
H     3.075000000    -3.043000000    -8.634000000
O     0.087000000    -0.336000000    -8.191000000
H     0.851000000     0.006000000    -7.725000000
H    -0.019000000    -1.226000000    -7.855000000
O     5.999000000    -1.531000000    -4.609000000
H     5.206000000    -1.998000000    -4.347000000
H     6.715000000    -2.107000000    -4.343000000
O     4.140000000    -3.804000000    -5.841000000
H     3.826000000    -3.384000000    -6.642000000
H     3.705000000    -3.328000000    -5.134000000
O     1.650000000     1.168000000    -6.560000000
H     1.688000000     0.676000000    -5.740000000
H     2.567000000     1.310000000    -6.796000000
O     2.526000000    -6.622000000    -3.411000000
H     2.330000000    -5.760000000    -3.043000000
H     2.181000000    -7.241000000    -2.768000000
O    -2.159000000    -2.032000000    -5.937000000
H    -1.683000000    -2.749000000    -5.518000000
H    -2.224000000    -1.359000000    -5.258000000
O    -2.155000000    -5.047000000    -5.064000000
H    -1.547000000    -5.781000000    -5.158000000
H    -2.757000000    -5.139000000    -5.802000000
O     1.787000000    -1.788000000    -5.790000000
H     1.045000000    -2.303000000    -5.474000000
H     2.421000000    -1.816000000    -5.073000000
O     4.816000000    -6.308000000    -4.752000000
H     3.967000000    -6.341000000    -4.311000000
H     4.821000000    -5.462000000    -5.199000000
O     7.424000000    -6.540000000    -4.613000000
H     7.784000000    -5.907000000    -5.235000000
H     6.486000000    -6.557000000    -4.805000000
O     4.417000000     0.232000000    -6.181000000
H     4.805000000    -0.376000000    -5.552000000
H     4.286000000    -0.291000000    -6.971000000
O     7.036000000    -6.512000000    -1.851000000
H     7.263000000    -6.580000000    -2.778000000
H     6.733000000    -5.610000000    -1.744000000
O     7.125000000     0.884000000    -5.649000000
H     6.412000000     0.968000000    -6.282000000
H     6.822000000     0.218000000    -5.033000000
O     7.195000000    -3.934000000    -6.784000000
H     7.473000000    -3.232000000    -7.373000000
H     6.463000000    -3.559000000    -6.294000000
O    -0.245000000    -7.264000000    -3.977000000
H     0.642000000    -7.439000000    -3.665000000
H    -0.366000000    -7.872000000    -4.707000000
O    -0.116000000    -3.435000000    -4.560000000
H     0.612000000    -3.953000000    -4.217000000
H    -0.876000000    -4.013000000    -4.488000000
