215
-1456.15215
C    -3.937000000    -2.686000000    -0.890000000
H    -4.501000000    -1.765000000    -1.016000000
C    -3.258000000    -2.966000000     0.292000000
C    -2.755000000    -4.238000000     0.510000000
H    -2.122000000    -4.451000000     1.368000000
C    -3.167000000    -1.832000000     1.215000000
O    -4.328000000    -1.034000000     1.382000000
H    -2.422000000    -1.114000000     0.843000000
O    -2.874000000    -2.334000000     2.531000000
C    -1.957000000    -1.739000000     3.382000000
C    -0.807000000    -2.488000000     3.510000000
H    -0.635000000    -3.406000000     2.954000000
C     0.239000000    -1.957000000     4.286000000
O     1.441000000    -2.609000000     4.155000000
C     0.095000000    -0.749000000     4.992000000
C     1.299000000    -0.097000000     5.643000000
H     0.924000000     0.549000000     6.439000000
C     2.029000000     0.730000000     4.611000000
C     1.603000000     2.074000000     4.321000000
H     0.961000000     2.568000000     5.046000000
H     1.922000000    -0.860000000     6.114000000
C    -1.066000000    -0.036000000     4.900000000
H    -1.153000000     0.887000000     5.469000000
C    -2.148000000    -0.579000000     4.143000000
C    -3.517000000     0.138000000     4.105000000
H    -3.637000000     0.841000000     4.931000000
H    -4.327000000    -0.564000000     4.316000000
C    -3.678000000     0.899000000     2.792000000
C    -3.466000000     2.256000000     2.811000000
H    -3.019000000     2.758000000     3.665000000
C    -4.128000000     0.283000000     1.587000000
C    -4.277000000     1.087000000     0.431000000
H    -4.460000000     0.582000000    -0.514000000
C    -3.949000000     2.428000000     0.418000000
O    -3.952000000     3.004000000    -0.834000000
C    -2.584000000     3.112000000    -1.458000000
C    -2.725000000     2.824000000    -2.962000000
C    -2.127000000     3.600000000    -3.938000000
H    -1.687000000     4.530000000    -3.585000000
C    -3.538000000     1.830000000    -3.473000000
H    -4.119000000     1.145000000    -2.861000000
O    -2.027000000     4.387000000    -1.198000000
H    -1.931000000     2.360000000    -0.990000000
C    -3.584000000     3.023000000     1.593000000
C    -3.065000000     4.466000000     1.549000000
H    -3.244000000     4.938000000     2.517000000
H    -3.576000000     5.079000000     0.804000000
C    -1.619000000     4.559000000     1.234000000
C    -0.616000000     4.360000000     2.201000000
H    -0.849000000     4.266000000     3.258000000
C    -1.177000000     4.506000000    -0.115000000
C     0.146000000     4.489000000    -0.468000000
H     0.335000000     4.463000000    -1.538000000
C     1.156000000     4.379000000     0.545000000
O     2.479000000     4.295000000     0.195000000
C     2.812000000     2.895000000     0.208000000
C     3.571000000     2.578000000    -1.100000000
C     3.101000000     2.973000000    -2.345000000
H     2.200000000     3.569000000    -2.469000000
C     4.711000000     1.739000000    -1.086000000
H     5.165000000     1.499000000    -0.127000000
O     3.643000000     2.690000000     1.344000000
H     1.952000000     2.218000000     0.315000000
C     0.729000000     4.380000000     1.853000000
C     1.713000000     4.234000000     2.924000000
H     1.358000000     4.779000000     3.801000000
H     2.639000000     4.723000000     2.613000000
C     2.121000000     2.780000000     3.236000000
C     3.105000000     2.174000000     2.467000000
C     3.520000000     0.869000000     2.749000000
H     4.207000000     0.422000000     2.035000000
C     2.960000000     0.138000000     3.785000000
O     3.297000000    -1.199000000     3.771000000
C     2.327000000    -2.104000000     3.088000000
H     1.817000000    -1.450000000     2.366000000
C     2.979000000    -3.280000000     2.290000000
C     2.235000000    -4.416000000     2.032000000
H     1.229000000    -4.500000000     2.435000000
C     4.087000000    -3.018000000     1.504000000
H     4.555000000    -2.039000000     1.563000000
C     4.576000000    -3.933000000     0.542000000
O     5.688000000    -3.689000000    -0.228000000
C     3.835000000    -5.075000000     0.348000000
H     4.148000000    -5.661000000    -0.512000000
C     2.728000000    -5.404000000     1.112000000
O     1.966000000    -6.389000000     0.594000000
C     0.756000000    -6.712000000     1.194000000
C    -0.377000000    -6.515000000     0.407000000
H    -0.258000000    -5.945000000    -0.511000000
C     0.624000000    -7.298000000     2.469000000
H     1.514000000    -7.551000000     3.038000000
C    -0.649000000    -7.684000000     2.971000000
H    -0.799000000    -8.120000000     3.956000000
C    -1.787000000    -7.449000000     2.115000000
H    -2.771000000    -7.633000000     2.539000000
C    -1.624000000    -6.811000000     0.825000000
O    -2.722000000    -6.576000000     0.035000000
C    -3.013000000    -5.290000000    -0.340000000
C    -3.630000000    -5.029000000    -1.600000000
H    -3.855000000    -5.895000000    -2.216000000
C    -4.107000000    -3.723000000    -1.861000000
O    -4.806000000    -3.585000000    -3.055000000
C    -5.361000000    -2.441000000    -3.526000000
C    -4.556000000    -1.585000000    -4.215000000
H    -3.596000000    -1.914000000    -4.605000000
C    -6.652000000    -2.204000000    -3.067000000
H    -7.143000000    -2.962000000    -2.462000000
C    -7.203000000    -0.980000000    -3.369000000
H    -8.208000000    -0.759000000    -3.020000000
C    -6.446000000    -0.081000000    -4.148000000
H    -6.867000000     0.887000000    -4.409000000
C    -5.136000000    -0.397000000    -4.570000000
O    -4.441000000     0.531000000    -5.369000000
C    -3.635000000     1.576000000    -4.869000000
C    -2.926000000     2.325000000    -5.706000000
H    -2.867000000     1.988000000    -6.738000000
C    -2.044000000     3.287000000    -5.278000000
O    -1.204000000     3.999000000    -6.049000000
C     0.044000000     4.413000000    -5.514000000
C     0.992000000     3.429000000    -5.413000000
H     0.831000000     2.396000000    -5.709000000
C     0.278000000     5.729000000    -5.343000000
H    -0.536000000     6.439000000    -5.467000000
C     1.501000000     6.070000000    -4.882000000
H     1.785000000     7.110000000    -4.742000000
C     2.497000000     5.145000000    -4.590000000
H     3.495000000     5.428000000    -4.265000000
C     2.275000000     3.782000000    -4.941000000
O     3.305000000     2.908000000    -4.732000000
C     3.809000000     2.567000000    -3.501000000
C     4.817000000     1.693000000    -3.460000000
H     5.337000000     1.475000000    -4.390000000
C     5.262000000     1.261000000    -2.227000000
O     6.456000000     0.576000000    -2.071000000
C     6.804000000    -0.344000000    -1.126000000
C     7.845000000    -0.153000000    -0.236000000
H     8.496000000     0.702000000    -0.402000000
C     7.943000000    -1.012000000     0.901000000
H     8.756000000    -0.961000000     1.621000000
C     7.235000000    -2.208000000     0.864000000
H     7.327000000    -2.931000000     1.670000000
C     6.340000000    -2.468000000    -0.115000000
C     6.022000000    -1.489000000    -1.049000000
H     5.221000000    -1.693000000    -1.755000000
C     1.625000000    -0.216000000    -1.876000000
H     2.127000000     0.309000000    -2.684000000
C     0.710000000     0.403000000    -0.984000000
H     0.560000000     1.480000000    -1.010000000
C     0.160000000    -0.317000000     0.017000000
H    -0.377000000     0.232000000     0.800000000
C     0.256000000    -1.709000000     0.099000000
H    -0.248000000    -2.256000000     0.892000000
C     1.200000000    -2.345000000    -0.720000000
H     1.494000000    -3.375000000    -0.535000000
C     1.792000000    -1.632000000    -1.744000000
C     2.797000000    -2.373000000    -2.725000000
O     2.798000000    -3.568000000    -2.805000000
O     3.478000000    -1.711000000    -3.508000000
O     7.168000000    -4.617000000    -3.238000000
H     6.525000000    -4.097000000    -3.720000000
H     6.944000000    -4.482000000    -2.317000000
O    -0.742000000    -0.784000000    -3.623000000
H    -0.686000000    -1.722000000    -3.440000000
H    -0.760000000    -0.373000000    -2.759000000
O    -0.321000000    -0.116000000    -6.306000000
H    -0.786000000    -0.036000000    -5.474000000
H     0.600000000     0.011000000    -6.079000000
O    -2.156000000    -4.116000000    -4.954000000
H    -1.289000000    -3.750000000    -4.781000000
H    -2.330000000    -3.898000000    -5.869000000
O     4.912000000    -4.319000000    -4.626000000
H     4.717000000    -3.937000000    -5.482000000
H     4.136000000    -4.133000000    -4.098000000
O     2.812000000    -3.934000000    -7.815000000
H     2.888000000    -4.571000000    -7.105000000
H     3.465000000    -3.265000000    -7.607000000
O     1.615000000    -5.867000000    -2.906000000
H     2.126000000    -5.068000000    -2.774000000
H     1.909000000    -6.457000000    -2.212000000
O     0.252000000    -3.640000000    -3.716000000
H     1.172000000    -3.512000000    -3.487000000
H     0.023000000    -4.483000000    -3.325000000
O     2.899000000     0.479000000    -7.668000000
H     2.412000000    -0.116000000    -8.238000000
H     2.756000000     0.137000000    -6.786000000
O     2.945000000    -7.793000000    -1.783000000
H     3.147000000    -8.394000000    -1.066000000
H     3.774000000    -7.692000000    -2.251000000
O     0.617000000    -5.787000000    -6.628000000
H     0.095000000    -4.987000000    -6.704000000
H     0.475000000    -6.080000000    -5.728000000
O    -0.372000000    -6.953000000    -4.413000000
H    -0.321000000    -7.669000000    -3.780000000
H     0.190000000    -6.269000000    -4.046000000
O     8.096000000    -1.777000000    -3.453000000
H     8.621000000    -1.110000000    -3.010000000
H     8.565000000    -2.596000000    -3.292000000
O     5.872000000    -1.544000000    -4.888000000
H     5.121000000    -1.697000000    -4.314000000
H     6.627000000    -1.545000000    -4.299000000
O     5.197000000    -2.391000000    -7.474000000
H     5.557000000    -2.179000000    -6.613000000
H     5.625000000    -1.777000000    -8.070000000
O     8.244000000    -5.209000000    -0.047000000
H     7.469000000    -4.648000000    -0.029000000
H     8.143000000    -5.782000000     0.714000000
O     5.348000000    -7.064000000    -3.482000000
H     5.291000000    -6.152000000    -3.765000000
H     4.814000000    -7.545000000    -4.114000000
O     2.191000000     0.034000000    -5.193000000
H     2.513000000    -0.612000000    -4.564000000
H     2.688000000     0.828000000    -4.996000000
O     7.413000000    -6.384000000    -5.516000000
H     6.537000000    -6.737000000    -5.675000000
H     7.283000000    -5.715000000    -4.843000000
