215
-1436.51228
C    -4.060000000    -1.158000000    -1.509000000
H    -3.909000000    -0.098000000    -1.700000000
C    -4.152000000    -1.579000000    -0.246000000
C    -4.057000000    -2.932000000     0.051000000
H    -3.870000000    -3.285000000     1.062000000
C    -3.894000000    -0.497000000     0.794000000
O    -4.657000000     0.700000000     0.564000000
H    -2.830000000    -0.226000000     0.858000000
O    -4.212000000    -1.016000000     2.095000000
C    -3.352000000    -0.848000000     3.159000000
C    -2.477000000    -1.912000000     3.509000000
H    -2.480000000    -2.794000000     2.873000000
C    -1.481000000    -1.682000000     4.445000000
O    -0.558000000    -2.714000000     4.486000000
C    -1.244000000    -0.401000000     4.905000000
C     0.038000000    -0.156000000     5.666000000
H    -0.197000000     0.722000000     6.271000000
C     1.288000000     0.178000000     4.747000000
C     1.595000000     1.557000000     4.646000000
H     1.005000000     2.270000000     5.217000000
H     0.240000000    -0.948000000     6.391000000
C    -2.120000000     0.695000000     4.579000000
H    -1.881000000     1.681000000     4.971000000
C    -3.187000000     0.452000000     3.758000000
C    -4.150000000     1.570000000     3.340000000
H    -4.210000000     2.292000000     4.157000000
H    -5.147000000     1.216000000     3.066000000
C    -3.648000000     2.318000000     2.141000000
C    -2.754000000     3.374000000     2.288000000
H    -2.517000000     3.694000000     3.300000000
C    -4.031000000     1.922000000     0.845000000
C    -3.703000000     2.740000000    -0.268000000
H    -4.088000000     2.423000000    -1.234000000
C    -2.864000000     3.883000000    -0.121000000
O    -2.414000000     4.535000000    -1.261000000
C    -1.013000000     4.128000000    -1.480000000
C    -0.762000000     3.803000000    -3.000000000
C     0.496000000     4.013000000    -3.610000000
H     1.295000000     4.460000000    -3.024000000
C    -1.799000000     3.344000000    -3.817000000
H    -2.815000000     3.161000000    -3.475000000
O    -0.125000000     5.047000000    -1.006000000
H    -0.833000000     3.120000000    -1.078000000
C    -2.388000000     4.124000000     1.141000000
C    -1.431000000     5.337000000     1.443000000
H    -1.572000000     5.758000000     2.441000000
H    -1.574000000     6.237000000     0.842000000
C    -0.052000000     4.830000000     1.295000000
C     0.622000000     4.324000000     2.404000000
H    -0.003000000     4.193000000     3.284000000
C     0.575000000     4.756000000     0.092000000
C     1.868000000     4.424000000    -0.080000000
H     2.352000000     4.329000000    -1.049000000
C     2.571000000     3.924000000     0.985000000
O     3.620000000     3.153000000     0.609000000
C     3.485000000     1.755000000     0.819000000
C     3.978000000     0.986000000    -0.398000000
C     4.436000000     1.685000000    -1.556000000
H     4.504000000     2.763000000    -1.677000000
C     3.858000000    -0.389000000    -0.461000000
H     3.480000000    -0.940000000     0.397000000
O     4.215000000     1.256000000     1.920000000
H     2.431000000     1.451000000     0.899000000
C     1.974000000     3.934000000     2.273000000
C     2.754000000     3.480000000     3.490000000
H     2.490000000     4.009000000     4.409000000
H     3.814000000     3.703000000     3.353000000
C     2.551000000     1.990000000     3.722000000
C     3.287000000     0.970000000     2.956000000
C     3.106000000    -0.393000000     3.241000000
H     3.805000000    -1.090000000     2.787000000
C     2.135000000    -0.828000000     4.205000000
O     1.784000000    -2.175000000     4.284000000
C     0.606000000    -2.707000000     3.549000000
H     0.436000000    -1.972000000     2.748000000
C     0.983000000    -4.074000000     2.935000000
C    -0.065000000    -4.937000000     2.605000000
H    -1.075000000    -4.596000000     2.820000000
C     2.226000000    -4.322000000     2.463000000
H     3.040000000    -3.639000000     2.692000000
C     2.505000000    -5.533000000     1.942000000
O     3.811000000    -5.889000000     1.612000000
C     1.488000000    -6.416000000     1.697000000
H     1.680000000    -7.378000000     1.230000000
C     0.177000000    -6.124000000     1.933000000
O    -0.799000000    -6.951000000     1.472000000
C    -2.165000000    -6.620000000     1.508000000
C    -2.715000000    -6.120000000     0.302000000
H    -2.015000000    -6.012000000    -0.523000000
C    -3.003000000    -6.904000000     2.662000000
H    -2.589000000    -7.221000000     3.616000000
C    -4.365000000    -6.601000000     2.551000000
H    -4.965000000    -6.875000000     3.414000000
C    -4.956000000    -6.205000000     1.345000000
H    -6.030000000    -6.067000000     1.245000000
C    -4.110000000    -5.844000000     0.255000000
O    -4.563000000    -5.185000000    -0.787000000
C    -4.279000000    -3.872000000    -0.997000000
C    -4.146000000    -3.471000000    -2.375000000
H    -4.218000000    -4.139000000    -3.229000000
C    -4.063000000    -2.080000000    -2.616000000
O    -3.814000000    -1.664000000    -3.874000000
C    -4.245000000    -0.504000000    -4.427000000
C    -3.284000000     0.460000000    -4.835000000
H    -2.236000000     0.246000000    -4.641000000
C    -5.558000000    -0.361000000    -4.706000000
H    -6.229000000    -1.192000000    -4.500000000
C    -5.928000000     0.792000000    -5.291000000
H    -6.970000000     0.842000000    -5.597000000
C    -5.000000000     1.807000000    -5.637000000
H    -5.320000000     2.667000000    -6.221000000
C    -3.687000000     1.665000000    -5.385000000
O    -2.758000000     2.603000000    -5.845000000
C    -1.641000000     3.018000000    -5.160000000
C    -0.420000000     3.286000000    -5.710000000
H    -0.326000000     3.078000000    -6.773000000
C     0.653000000     3.756000000    -4.985000000
O     1.809000000     4.231000000    -5.598000000
C     3.125000000     4.133000000    -5.255000000
C     3.490000000     2.983000000    -4.642000000
H     2.759000000     2.196000000    -4.473000000
C     3.978000000     5.246000000    -5.306000000
H     3.668000000     6.166000000    -5.795000000
C     5.353000000     5.027000000    -5.024000000
H     6.090000000     5.771000000    -5.313000000
C     5.804000000     3.805000000    -4.613000000
H     6.822000000     3.536000000    -4.345000000
C     4.839000000     2.836000000    -4.326000000
O     5.348000000     1.610000000    -3.850000000
C     4.829000000     0.965000000    -2.709000000
C     4.764000000    -0.431000000    -2.699000000
H     5.148000000    -0.952000000    -3.572000000
C     4.313000000    -1.127000000    -1.570000000
O     4.253000000    -2.550000000    -1.722000000
C     4.841000000    -3.322000000    -0.742000000
C     6.187000000    -3.194000000    -0.381000000
H     6.734000000    -2.360000000    -0.812000000
C     6.725000000    -3.914000000     0.664000000
H     7.717000000    -3.547000000     0.914000000
C     6.007000000    -5.031000000     1.162000000
H     6.436000000    -5.625000000     1.965000000
C     4.651000000    -5.112000000     0.838000000
C     4.087000000    -4.326000000    -0.201000000
H     3.058000000    -4.375000000    -0.547000000
C     0.603000000     0.652000000    -1.390000000
H     1.021000000     1.480000000    -1.957000000
C     0.289000000     0.817000000    -0.017000000
H     0.251000000     1.831000000     0.372000000
C    -0.110000000    -0.201000000     0.875000000
H    -0.280000000     0.102000000     1.958000000
C    -0.379000000    -1.430000000     0.282000000
H    -0.788000000    -2.207000000     0.922000000
C    -0.123000000    -1.632000000    -1.079000000
H    -0.209000000    -2.613000000    -1.540000000
C     0.460000000    -0.634000000    -1.878000000
C     0.942000000    -0.855000000    -3.317000000
O     0.586000000    -1.861000000    -3.864000000
O     1.373000000     0.061000000    -4.045000000
O    -3.005000000    -2.775000000    -7.494000000
H    -2.855000000    -3.698000000    -7.293000000
H    -2.504000000    -2.301000000    -6.830000000
O     1.558000000    -5.318000000    -8.161000000
H     1.321000000    -4.540000000    -8.666000000
H     1.861000000    -4.974000000    -7.321000000
O     0.614000000     0.439000000    -6.623000000
H     1.457000000     0.470000000    -7.075000000
H     0.815000000     0.695000000    -5.723000000
O     2.598000000    -3.838000000    -3.586000000
H     2.024000000    -3.085000000    -3.725000000
H     3.256000000    -3.527000000    -2.965000000
O     3.064000000    -1.985000000    -8.843000000
H     2.174000000    -2.327000000    -8.762000000
H     3.013000000    -1.098000000    -8.487000000
O     3.021000000     3.341000000    -8.649000000
H     2.778000000     4.163000000    -9.075000000
H     3.105000000     3.567000000    -7.723000000
O     7.550000000    -3.208000000    -4.487000000
H     7.768000000    -2.297000000    -4.685000000
H     6.625000000    -3.289000000    -4.721000000
O     2.437000000     0.901000000    -8.837000000
H     1.829000000     0.756000000    -9.563000000
H     2.756000000     1.794000000    -8.967000000
O     3.450000000    -1.046000000    -5.534000000
H     2.665000000    -0.707000000    -5.105000000
H     3.276000000    -1.980000000    -5.648000000
O    -1.920000000    -5.537000000    -7.056000000
H    -2.791000000    -5.884000000    -6.864000000
H    -1.498000000    -6.221000000    -7.575000000
O     5.012000000     0.575000000    -7.203000000
H     4.333000000     0.981000000    -7.742000000
H     4.570000000    -0.156000000    -6.772000000
O     5.332000000    -2.965000000    -7.653000000
H     4.512000000    -2.679000000    -8.054000000
H     5.074000000    -3.312000000    -6.799000000
O    -1.490000000     1.160000000    -8.332000000
H    -2.221000000     0.714000000    -7.904000000
H    -0.723000000     0.912000000    -7.815000000
O     5.117000000    -4.207000000    -5.291000000
H     4.216000000    -4.111000000    -4.982000000
H     5.406000000    -5.045000000    -4.930000000
O     2.844000000    -5.908000000    -5.510000000
H     2.058000000    -6.454000000    -5.485000000
H     2.887000000    -5.511000000    -4.641000000
O     0.403000000    -5.704000000    -2.346000000
H     1.316000000    -5.420000000    -2.391000000
H    -0.040000000    -5.194000000    -3.024000000
O     0.316000000    -2.766000000    -8.916000000
H    -0.441000000    -2.850000000    -8.336000000
H    -0.053000000    -2.479000000    -9.751000000
O    -0.996000000    -4.436000000    -4.516000000
H    -0.770000000    -3.512000000    -4.617000000
H    -1.250000000    -4.719000000    -5.394000000
O    -0.720000000    -1.822000000    -6.150000000
H    -0.287000000    -1.838000000    -5.296000000
H    -0.361000000    -1.049000000    -6.585000000
