215
-1436.12521
C    -5.512000000    -0.003000000    -0.471000000
H    -5.918000000     0.973000000    -0.219000000
C    -4.615000000    -0.643000000     0.414000000
C    -4.122000000    -1.888000000     0.025000000
H    -3.362000000    -2.377000000     0.630000000
C    -4.129000000     0.009000000     1.678000000
O    -4.697000000     1.312000000     1.886000000
H    -3.103000000     0.169000000     1.315000000
O    -4.179000000    -0.881000000     2.850000000
C    -3.062000000    -0.964000000     3.592000000
C    -2.236000000    -2.061000000     3.421000000
H    -2.574000000    -2.856000000     2.762000000
C    -1.051000000    -2.149000000     4.111000000
O    -0.265000000    -3.274000000     3.923000000
C    -0.586000000    -1.176000000     4.891000000
C     0.844000000    -1.163000000     5.522000000
H     0.834000000    -0.595000000     6.455000000
C     1.954000000    -0.815000000     4.496000000
C     2.321000000     0.501000000     4.357000000
H     1.846000000     1.248000000     4.987000000
H     1.016000000    -2.178000000     5.889000000
C    -1.350000000     0.027000000     5.042000000
H    -0.922000000     0.871000000     5.578000000
C    -2.542000000     0.118000000     4.388000000
C    -3.319000000     1.527000000     4.391000000
H    -2.927000000     2.120000000     5.220000000
H    -4.397000000     1.354000000     4.412000000
C    -3.050000000     2.407000000     3.257000000
C    -1.947000000     3.255000000     3.300000000
H    -1.247000000     3.280000000     4.131000000
C    -3.782000000     2.327000000     2.087000000
C    -3.424000000     3.043000000     0.971000000
H    -4.068000000     2.960000000     0.099000000
C    -2.274000000     3.794000000     0.957000000
O    -1.889000000     4.326000000    -0.204000000
C    -0.721000000     3.789000000    -0.931000000
C    -0.967000000     3.864000000    -2.492000000
C     0.000000000     4.412000000    -3.288000000
H     0.854000000     4.897000000    -2.821000000
C    -2.039000000     3.186000000    -3.042000000
H    -2.816000000     2.670000000    -2.484000000
O     0.390000000     4.664000000    -0.530000000
H    -0.581000000     2.727000000    -0.682000000
C    -1.560000000     3.956000000     2.218000000
C    -0.419000000     4.960000000     2.290000000
H    -0.337000000     5.293000000     3.327000000
H    -0.708000000     5.834000000     1.704000000
C     0.887000000     4.414000000     1.808000000
C     1.793000000     3.914000000     2.716000000
H     1.395000000     4.072000000     3.715000000
C     1.182000000     4.244000000     0.454000000
C     2.397000000     3.675000000     0.054000000
H     2.643000000     3.627000000    -1.004000000
C     3.248000000     3.169000000     0.969000000
O     4.317000000     2.431000000     0.545000000
C     4.082000000     1.049000000     0.471000000
C     4.607000000     0.561000000    -0.862000000
C     4.701000000     1.391000000    -1.997000000
H     4.461000000     2.449000000    -1.919000000
C     4.846000000    -0.810000000    -1.000000000
H     4.795000000    -1.460000000    -0.130000000
O     4.725000000     0.360000000     1.563000000
H     2.992000000     0.904000000     0.470000000
C     2.962000000     3.198000000     2.383000000
C     3.643000000     2.393000000     3.367000000
H     3.385000000     2.883000000     4.308000000
H     4.720000000     2.518000000     3.240000000
C     3.256000000     0.897000000     3.412000000
C     3.821000000    -0.059000000     2.553000000
C     3.468000000    -1.382000000     2.692000000
H     3.956000000    -2.060000000     1.996000000
C     2.494000000    -1.772000000     3.592000000
O     2.000000000    -3.058000000     3.626000000
C     0.797000000    -3.280000000     2.933000000
H     0.621000000    -2.423000000     2.266000000
C     0.804000000    -4.487000000     2.019000000
C    -0.354000000    -5.160000000     1.775000000
H    -1.255000000    -4.827000000     2.283000000
C     1.931000000    -4.839000000     1.329000000
H     2.854000000    -4.271000000     1.415000000
C     1.950000000    -5.897000000     0.442000000
O     3.100000000    -6.226000000    -0.201000000
C     0.846000000    -6.679000000     0.248000000
H     0.799000000    -7.581000000    -0.358000000
C    -0.368000000    -6.359000000     1.024000000
O    -1.558000000    -7.073000000     0.837000000
C    -2.750000000    -6.390000000     0.479000000
C    -2.644000000    -5.299000000    -0.379000000
H    -1.750000000    -5.021000000    -0.933000000
C    -3.974000000    -6.818000000     1.080000000
H    -3.969000000    -7.601000000     1.834000000
C    -5.099000000    -6.195000000     0.693000000
H    -5.992000000    -6.520000000     1.221000000
C    -5.077000000    -5.142000000    -0.246000000
H    -6.005000000    -4.628000000    -0.483000000
C    -3.873000000    -4.729000000    -0.785000000
O    -3.888000000    -3.610000000    -1.660000000
C    -4.459000000    -2.462000000    -1.208000000
C    -5.258000000    -1.786000000    -2.082000000
H    -5.487000000    -2.141000000    -3.084000000
C    -5.802000000    -0.548000000    -1.731000000
O    -6.574000000     0.194000000    -2.627000000
C    -6.091000000     1.312000000    -3.288000000
C    -4.795000000     1.251000000    -3.825000000
H    -4.145000000     0.398000000    -3.647000000
C    -6.899000000     2.423000000    -3.485000000
H    -7.889000000     2.368000000    -3.039000000
C    -6.427000000     3.488000000    -4.253000000
H    -6.966000000     4.412000000    -4.445000000
C    -5.109000000     3.411000000    -4.818000000
H    -4.729000000     4.253000000    -5.391000000
C    -4.349000000     2.320000000    -4.580000000
O    -3.122000000     2.344000000    -5.129000000
C    -2.088000000     2.997000000    -4.449000000
C    -1.016000000     3.512000000    -5.285000000
H    -1.029000000     3.333000000    -6.357000000
C     0.004000000     4.179000000    -4.644000000
O     1.156000000     4.553000000    -5.319000000
C     2.417000000     4.322000000    -4.831000000
C     2.861000000     3.026000000    -4.682000000
H     2.170000000     2.203000000    -4.846000000
C     3.314000000     5.385000000    -4.510000000
H     2.937000000     6.393000000    -4.362000000
C     4.650000000     5.074000000    -4.215000000
H     5.392000000     5.852000000    -4.055000000
C     5.110000000     3.795000000    -4.191000000
H     6.148000000     3.509000000    -4.039000000
C     4.179000000     2.779000000    -4.372000000
O     4.628000000     1.496000000    -4.358000000
C     4.866000000     0.779000000    -3.228000000
C     4.994000000    -0.573000000    -3.346000000
H     5.181000000    -1.083000000    -4.288000000
C     5.067000000    -1.329000000    -2.230000000
O     5.359000000    -2.686000000    -2.494000000
C     5.299000000    -3.626000000    -1.526000000
C     6.550000000    -4.108000000    -1.082000000
H     7.453000000    -3.605000000    -1.419000000
C     6.676000000    -5.198000000    -0.260000000
H     7.713000000    -5.436000000    -0.039000000
C     5.553000000    -5.813000000     0.164000000
H     5.634000000    -6.602000000     0.907000000
C     4.275000000    -5.502000000    -0.391000000
C     4.141000000    -4.330000000    -1.200000000
H     3.245000000    -3.894000000    -1.634000000
C    -1.157000000    -0.383000000    -2.080000000
H    -2.074000000    -0.096000000    -2.588000000
C    -1.021000000     0.166000000    -0.828000000
H    -1.810000000     0.823000000    -0.472000000
C     0.165000000    -0.142000000    -0.087000000
H     0.357000000     0.323000000     0.939000000
C     1.116000000    -1.007000000    -0.605000000
H     1.980000000    -1.147000000     0.040000000
C     0.950000000    -1.487000000    -1.870000000
H     1.787000000    -2.029000000    -2.304000000
C    -0.197000000    -1.205000000    -2.617000000
C    -0.426000000    -1.846000000    -3.969000000
O     0.394000000    -2.728000000    -4.225000000
O    -1.367000000    -1.591000000    -4.685000000
O    -1.643000000     1.287000000    -7.777000000
H    -1.305000000     2.183000000    -7.763000000
H    -1.864000000     1.129000000    -8.695000000
O     2.140000000    -4.488000000    -3.756000000
H     1.504000000    -3.784000000    -3.881000000
H     1.607000000    -5.271000000    -3.618000000
O     2.210000000     1.618000000    -7.542000000
H     3.051000000     1.612000000    -7.085000000
H     1.616000000     1.148000000    -6.957000000
O     4.478000000    -1.519000000    -6.720000000
H     4.800000000    -0.620000000    -6.779000000
H     3.553000000    -1.428000000    -6.492000000
O    -2.772000000    -3.797000000    -9.101000000
H    -3.501000000    -4.277000000    -8.709000000
H    -2.093000000    -3.799000000    -8.426000000
O    -5.601000000    -2.662000000    -7.349000000
H    -5.562000000    -2.248000000    -8.211000000
H    -4.848000000    -2.306000000    -6.877000000
O    -4.107000000    -5.881000000    -5.569000000
H    -3.623000000    -6.649000000    -5.267000000
H    -3.640000000    -5.138000000    -5.187000000
O     0.484000000    -0.942000000    -9.465000000
H     0.815000000    -0.726000000   -10.337000000
H     0.489000000    -0.110000000    -8.993000000
O    -5.831000000     1.114000000    -7.157000000
H    -5.189000000     0.416000000    -7.028000000
H    -5.319000000     1.851000000    -7.491000000
O     1.801000000    -2.221000000    -6.445000000
H     1.503000000    -2.477000000    -5.573000000
H     1.284000000    -1.443000000    -6.656000000
O    -2.983000000    -3.744000000    -4.361000000
H    -2.724000000    -2.831000000    -4.239000000
H    -3.276000000    -4.028000000    -3.495000000
O    -3.290000000    -0.596000000    -6.232000000
H    -2.740000000    -0.915000000    -5.517000000
H    -2.750000000     0.057000000    -6.677000000
O     4.295000000    -3.738000000    -5.205000000
H     4.362000000    -2.971000000    -5.773000000
H     3.365000000    -3.791000000    -4.982000000
O    -0.849000000    -6.003000000    -3.909000000
H    -1.187000000    -5.273000000    -4.427000000
H    -1.629000000    -6.482000000    -3.630000000
O    -1.202000000    -3.802000000    -6.940000000
H    -1.576000000    -3.187000000    -6.308000000
H    -0.306000000    -3.493000000    -7.072000000
O     1.306000000    -8.051000000    -3.788000000
H     1.401000000    -8.183000000    -2.845000000
H     0.430000000    -7.682000000    -3.892000000
O     2.403000000    -3.195000000    -9.050000000
H     1.613000000    -2.763000000    -9.375000000
H     2.328000000    -3.146000000    -8.097000000
O    -0.970000000    -6.451000000    -7.812000000
H    -0.906000000    -5.601000000    -7.376000000
H    -1.611000000    -6.937000000    -7.294000000
O     0.229000000    -0.016000000    -6.261000000
H    -0.339000000     0.490000000    -6.843000000
H    -0.332000000    -0.715000000    -5.927000000
