215
-1442.91758
C    -4.936000000    -0.334000000    -1.993000000
H    -4.503000000     0.660000000    -2.067000000
C    -4.874000000    -0.884000000    -0.741000000
C    -5.358000000    -2.144000000    -0.568000000
H    -5.397000000    -2.448000000     0.475000000
C    -4.389000000    -0.091000000     0.410000000
O    -4.796000000     1.389000000     0.279000000
H    -3.293000000    -0.049000000     0.336000000
O    -4.737000000    -0.644000000     1.679000000
C    -3.865000000    -0.683000000     2.688000000
C    -3.184000000    -1.841000000     2.956000000
H    -3.259000000    -2.726000000     2.330000000
C    -2.067000000    -1.788000000     3.828000000
O    -1.305000000    -2.907000000     3.845000000
C    -1.711000000    -0.636000000     4.606000000
C    -0.537000000    -0.501000000     5.576000000
H    -0.714000000     0.372000000     6.208000000
C     0.849000000    -0.294000000     4.955000000
C     1.420000000     1.003000000     5.000000000
H     0.953000000     1.780000000     5.600000000
H    -0.429000000    -1.429000000     6.140000000
C    -2.529000000     0.509000000     4.442000000
H    -2.261000000     1.394000000     5.013000000
C    -3.586000000     0.463000000     3.496000000
C    -4.275000000     1.792000000     3.164000000
H    -4.211000000     2.374000000     4.086000000
H    -5.326000000     1.751000000     2.872000000
C    -3.649000000     2.558000000     2.056000000
C    -2.646000000     3.432000000     2.390000000
H    -2.412000000     3.659000000     3.427000000
C    -3.962000000     2.381000000     0.699000000
C    -3.332000000     3.074000000    -0.345000000
H    -3.516000000     2.852000000    -1.393000000
C    -2.186000000     3.809000000    -0.020000000
O    -1.590000000     4.314000000    -1.116000000
C    -0.296000000     3.802000000    -1.379000000
C    -0.017000000     3.699000000    -2.835000000
C     1.216000000     3.894000000    -3.411000000
H     2.094000000     4.145000000    -2.822000000
C    -1.009000000     3.150000000    -3.572000000
H    -2.012000000     3.126000000    -3.153000000
O     0.691000000     4.718000000    -0.717000000
H    -0.116000000     2.787000000    -0.996000000
C    -1.929000000     4.097000000     1.321000000
C    -0.899000000     5.138000000     1.651000000
H    -0.946000000     5.566000000     2.655000000
H    -0.915000000     5.943000000     0.914000000
C     0.485000000     4.405000000     1.572000000
C     1.000000000     3.824000000     2.766000000
H     0.397000000     3.935000000     3.664000000
C     1.269000000     4.424000000     0.460000000
C     2.510000000     3.934000000     0.517000000
H     3.160000000     3.853000000    -0.350000000
C     3.050000000     3.344000000     1.607000000
O     4.171000000     2.565000000     1.311000000
C     3.931000000     1.124000000     1.293000000
C     4.713000000     0.473000000     0.155000000
C     4.706000000     0.983000000    -1.120000000
H     4.215000000     1.908000000    -1.411000000
C     5.257000000    -0.744000000     0.434000000
H     5.203000000    -1.202000000     1.418000000
O     4.233000000     0.636000000     2.620000000
H     2.894000000     0.801000000     1.118000000
C     2.313000000     3.346000000     2.785000000
C     2.905000000     2.797000000     4.062000000
H     2.504000000     3.378000000     4.896000000
H     3.995000000     2.813000000     3.988000000
C     2.430000000     1.327000000     4.111000000
C     3.137000000     0.327000000     3.436000000
C     2.709000000    -0.998000000     3.551000000
H     3.212000000    -1.824000000     3.055000000
C     1.500000000    -1.262000000     4.209000000
O     1.018000000    -2.541000000     4.067000000
C    -0.065000000    -2.723000000     3.156000000
H    -0.210000000    -1.813000000     2.556000000
C     0.189000000    -3.866000000     2.204000000
C    -0.796000000    -4.168000000     1.279000000
H    -1.778000000    -3.711000000     1.190000000
C     1.506000000    -4.454000000     2.012000000
H     2.291000000    -4.253000000     2.737000000
C     1.841000000    -5.390000000     1.040000000
O     3.086000000    -5.950000000     0.923000000
C     0.723000000    -5.783000000     0.277000000
H     0.823000000    -6.534000000    -0.503000000
C    -0.563000000    -5.243000000     0.380000000
O    -1.466000000    -5.640000000    -0.538000000
C    -2.804000000    -5.683000000    -0.251000000
C    -3.703000000    -4.786000000    -0.843000000
H    -3.298000000    -4.020000000    -1.499000000
C    -3.235000000    -6.684000000     0.630000000
H    -2.513000000    -7.281000000     1.182000000
C    -4.558000000    -6.795000000     0.931000000
H    -4.842000000    -7.651000000     1.537000000
C    -5.489000000    -5.907000000     0.364000000
H    -6.507000000    -6.055000000     0.715000000
C    -5.063000000    -4.950000000    -0.589000000
O    -6.014000000    -4.221000000    -1.310000000
C    -5.748000000    -2.895000000    -1.587000000
C    -5.842000000    -2.394000000    -2.857000000
H    -5.933000000    -3.091000000    -3.686000000
C    -5.388000000    -1.087000000    -3.063000000
O    -5.414000000    -0.475000000    -4.315000000
C    -4.917000000     0.738000000    -4.690000000
C    -3.584000000     0.993000000    -4.905000000
H    -2.917000000     0.135000000    -4.890000000
C    -5.834000000     1.799000000    -4.828000000
H    -6.886000000     1.571000000    -4.677000000
C    -5.452000000     3.057000000    -5.273000000
H    -6.140000000     3.862000000    -5.522000000
C    -4.095000000     3.334000000    -5.466000000
H    -3.798000000     4.279000000    -5.913000000
C    -3.165000000     2.329000000    -5.189000000
O    -1.893000000     2.466000000    -5.710000000
C    -0.802000000     2.873000000    -4.945000000
C     0.372000000     3.254000000    -5.604000000
H     0.534000000     3.157000000    -6.675000000
C     1.372000000     3.674000000    -4.768000000
O     2.552000000     4.097000000    -5.410000000
C     3.723000000     3.751000000    -4.810000000
C     3.949000000     2.389000000    -4.512000000
H     3.208000000     1.614000000    -4.694000000
C     4.737000000     4.651000000    -4.649000000
H     4.642000000     5.681000000    -4.985000000
C     5.961000000     4.253000000    -4.094000000
H     6.808000000     4.933000000    -4.067000000
C     6.154000000     2.906000000    -3.689000000
H     7.141000000     2.532000000    -3.432000000
C     5.154000000     2.026000000    -3.814000000
O     5.384000000     0.755000000    -3.428000000
C     5.432000000     0.298000000    -2.122000000
C     6.048000000    -0.908000000    -1.808000000
H     6.563000000    -1.573000000    -2.497000000
C     5.823000000    -1.528000000    -0.590000000
O     6.326000000    -2.722000000    -0.466000000
C     5.926000000    -3.732000000     0.428000000
C     6.849000000    -4.281000000     1.331000000
H     7.826000000    -3.810000000     1.271000000
C     6.439000000    -5.352000000     2.169000000
H     7.127000000    -5.727000000     2.923000000
C     5.182000000    -5.941000000     2.023000000
H     4.894000000    -6.783000000     2.647000000
C     4.291000000    -5.303000000     1.156000000
C     4.650000000    -4.214000000     0.375000000
H     3.983000000    -3.884000000    -0.417000000
C    -0.825000000    -0.646000000    -2.005000000
H    -1.516000000    -0.363000000    -2.795000000
C    -0.771000000     0.223000000    -0.966000000
H    -1.466000000     1.048000000    -0.830000000
C     0.064000000    -0.053000000     0.098000000
H     0.073000000     0.549000000     1.041000000
C     0.994000000    -1.077000000     0.017000000
H     1.708000000    -1.198000000     0.828000000
C     0.952000000    -1.899000000    -1.088000000
H     1.650000000    -2.728000000    -1.013000000
C     0.027000000    -1.757000000    -2.103000000
C    -0.016000000    -2.659000000    -3.333000000
O     1.015000000    -3.278000000    -3.625000000
O    -0.864000000    -2.625000000    -4.211000000
O    -4.645000000    -1.790000000    -7.824000000
H    -5.074000000    -1.287000000    -8.515000000
H    -3.758000000    -1.432000000    -7.782000000
O     3.512000000    -3.902000000    -2.885000000
H     2.590000000    -3.654000000    -2.950000000
H     3.498000000    -4.855000000    -2.800000000
O    -0.136000000    -0.334000000    -5.182000000
H     0.262000000     0.190000000    -4.487000000
H    -0.457000000    -1.118000000    -4.738000000
O     0.918000000     0.520000000    -7.860000000
H     1.677000000     0.680000000    -7.299000000
H     0.393000000    -0.118000000    -7.376000000
O    -3.018000000    -6.674000000    -7.001000000
H    -2.936000000    -5.726000000    -6.902000000
H    -3.961000000    -6.837000000    -6.983000000
O    -2.171000000    -0.815000000    -7.126000000
H    -1.514000000    -0.444000000    -6.537000000
H    -2.039000000    -1.761000000    -7.067000000
O    -4.752000000    -3.850000000    -5.972000000
H    -4.753000000    -3.065000000    -6.520000000
H    -5.515000000    -4.348000000    -6.265000000
O    -3.016000000    -7.210000000    -3.780000000
H    -2.920000000    -6.999000000    -4.709000000
H    -3.111000000    -6.360000000    -3.351000000
O     0.724000000    -8.858000000    -6.446000000
H     1.681000000    -8.865000000    -6.488000000
H     0.524000000    -8.384000000    -5.639000000
O     3.900000000    -0.312000000    -6.529000000
H     3.834000000    -1.208000000    -6.861000000
H     4.131000000    -0.415000000    -5.606000000
O     1.055000000    -5.498000000    -4.801000000
H     0.757000000    -6.157000000    -4.174000000
H     0.955000000    -4.666000000    -4.339000000
O     4.929000000    -4.093000000    -5.266000000
H     4.424000000    -4.174000000    -4.457000000
H     4.354000000    -3.610000000    -5.860000000
O    -2.954000000    -4.481000000    -4.092000000
H    -2.269000000    -3.813000000    -4.122000000
H    -3.553000000    -4.242000000    -4.799000000
O     2.298000000    -2.970000000    -9.299000000
H     2.629000000    -3.544000000    -9.989000000
H     1.785000000    -3.547000000    -8.733000000
O     0.005000000    -7.714000000    -3.491000000
H    -0.780000000    -7.243000000    -3.212000000
H     0.150000000    -8.366000000    -2.805000000
O     2.672000000    -2.672000000    -6.010000000
H     2.197000000    -3.028000000    -6.761000000
H     2.238000000    -3.055000000    -5.248000000
O     2.532000000    -7.201000000    -2.649000000
H     1.636000000    -7.536000000    -2.677000000
H     3.080000000    -7.986000000    -2.629000000
O     1.096000000    -5.060000000    -7.571000000
H     0.547000000    -5.812000000    -7.793000000
H     1.306000000    -5.182000000    -6.645000000
O    -1.184000000    -3.781000000    -6.765000000
H    -0.351000000    -4.181000000    -7.015000000
H    -1.039000000    -3.464000000    -5.874000000
