215
-1440.30965
C    -4.911000000    -0.941000000    -1.623000000
H    -4.720000000     0.117000000    -1.784000000
C    -4.627000000    -1.491000000    -0.369000000
C    -4.489000000    -2.884000000    -0.308000000
H    -4.016000000    -3.370000000     0.541000000
C    -4.070000000    -0.699000000     0.867000000
O    -4.802000000     0.564000000     0.953000000
H    -2.998000000    -0.495000000     0.730000000
O    -4.138000000    -1.511000000     2.125000000
C    -3.070000000    -1.334000000     3.064000000
C    -2.325000000    -2.477000000     3.320000000
H    -2.513000000    -3.396000000     2.771000000
C    -1.197000000    -2.371000000     4.146000000
O    -0.274000000    -3.362000000     4.242000000
C    -0.911000000    -1.122000000     4.763000000
C     0.352000000    -0.919000000     5.581000000
H     0.137000000    -0.171000000     6.347000000
C     1.410000000    -0.455000000     4.695000000
C     1.698000000     0.878000000     4.675000000
H     1.132000000     1.547000000     5.319000000
H     0.822000000    -1.778000000     6.065000000
C    -1.845000000    -0.075000000     4.687000000
H    -1.722000000     0.865000000     5.218000000
C    -2.927000000    -0.152000000     3.803000000
C    -3.914000000     0.996000000     3.734000000
H    -3.921000000     1.607000000     4.639000000
H    -4.950000000     0.658000000     3.661000000
C    -3.556000000     1.976000000     2.591000000
C    -2.806000000     3.116000000     2.790000000
H    -2.403000000     3.372000000     3.767000000
C    -3.970000000     1.626000000     1.246000000
C    -3.547000000     2.436000000     0.150000000
H    -3.935000000     2.271000000    -0.852000000
C    -2.797000000     3.584000000     0.382000000
O    -2.410000000     4.278000000    -0.705000000
C    -1.058000000     3.943000000    -1.176000000
C    -0.986000000     3.871000000    -2.691000000
C     0.016000000     4.583000000    -3.380000000
H     0.738000000     5.270000000    -2.946000000
C    -1.876000000     3.048000000    -3.441000000
H    -2.572000000     2.438000000    -2.871000000
O    -0.164000000     4.985000000    -0.646000000
H    -0.721000000     2.991000000    -0.739000000
C    -2.431000000     3.888000000     1.706000000
C    -1.426000000     5.020000000     1.968000000
H    -1.477000000     5.472000000     2.961000000
H    -1.679000000     5.847000000     1.301000000
C    -0.023000000     4.571000000     1.694000000
C     0.682000000     3.909000000     2.728000000
H     0.204000000     3.808000000     3.699000000
C     0.553000000     4.621000000     0.425000000
C     1.803000000     4.130000000     0.180000000
H     2.153000000     4.184000000    -0.848000000
C     2.502000000     3.559000000     1.250000000
O     3.750000000     3.011000000     0.978000000
C     3.739000000     1.607000000     0.838000000
C     4.498000000     1.082000000    -0.383000000
C     4.473000000     1.772000000    -1.629000000
H     4.026000000     2.763000000    -1.633000000
C     5.113000000    -0.154000000    -0.391000000
H     5.085000000    -0.696000000     0.551000000
O     4.310000000     0.981000000     2.063000000
H     2.675000000     1.354000000     0.718000000
C     1.971000000     3.470000000     2.577000000
C     2.780000000     2.925000000     3.719000000
H     2.477000000     3.384000000     4.662000000
H     3.826000000     3.189000000     3.551000000
C     2.624000000     1.438000000     3.750000000
C     3.365000000     0.570000000     2.955000000
C     3.146000000    -0.816000000     2.951000000
H     3.601000000    -1.442000000     2.188000000
C     2.178000000    -1.299000000     3.891000000
O     1.890000000    -2.619000000     3.988000000
C     0.809000000    -3.172000000     3.290000000
H     0.456000000    -2.323000000     2.686000000
C     1.163000000    -4.353000000     2.405000000
C     0.168000000    -5.017000000     1.755000000
H    -0.860000000    -4.696000000     1.899000000
C     2.524000000    -4.532000000     2.000000000
H     3.304000000    -3.887000000     2.397000000
C     2.812000000    -5.474000000     1.034000000
O     4.127000000    -5.673000000     0.501000000
C     1.790000000    -6.088000000     0.378000000
H     2.035000000    -6.629000000    -0.532000000
C     0.470000000    -5.877000000     0.724000000
O    -0.501000000    -6.658000000     0.013000000
C    -1.922000000    -6.612000000     0.182000000
C    -2.699000000    -5.775000000    -0.545000000
H    -2.211000000    -5.029000000    -1.167000000
C    -2.508000000    -7.534000000     1.006000000
H    -1.862000000    -8.254000000     1.502000000
C    -3.910000000    -7.667000000     1.070000000
H    -4.302000000    -8.430000000     1.737000000
C    -4.722000000    -6.775000000     0.344000000
H    -5.803000000    -6.881000000     0.404000000
C    -4.079000000    -5.869000000    -0.528000000
O    -4.858000000    -5.077000000    -1.350000000
C    -4.925000000    -3.654000000    -1.407000000
C    -5.422000000    -3.098000000    -2.557000000
H    -5.924000000    -3.574000000    -3.395000000
C    -5.353000000    -1.703000000    -2.693000000
O    -5.581000000    -1.240000000    -3.997000000
C    -5.399000000     0.098000000    -4.375000000
C    -4.139000000     0.566000000    -4.687000000
H    -3.348000000    -0.157000000    -4.867000000
C    -6.439000000     1.031000000    -4.297000000
H    -7.446000000     0.678000000    -4.086000000
C    -6.232000000     2.360000000    -4.785000000
H    -7.098000000     2.989000000    -4.969000000
C    -4.980000000     2.801000000    -5.166000000
H    -4.793000000     3.815000000    -5.510000000
C    -4.001000000     1.867000000    -5.132000000
O    -2.720000000     2.184000000    -5.548000000
C    -1.794000000     2.989000000    -4.824000000
C    -0.757000000     3.658000000    -5.499000000
H    -0.637000000     3.575000000    -6.576000000
C     0.172000000     4.374000000    -4.747000000
O     1.196000000     5.025000000    -5.248000000
C     2.512000000     4.765000000    -4.817000000
C     3.048000000     3.513000000    -4.664000000
H     2.504000000     2.620000000    -4.962000000
C     3.279000000     5.843000000    -4.510000000
H     2.962000000     6.843000000    -4.795000000
C     4.527000000     5.763000000    -3.999000000
H     5.073000000     6.673000000    -3.765000000
C     5.083000000     4.459000000    -3.828000000
H     6.065000000     4.344000000    -3.376000000
C     4.343000000     3.342000000    -4.153000000
O     4.925000000     2.096000000    -4.006000000
C     4.987000000     1.306000000    -2.837000000
C     5.669000000     0.128000000    -2.824000000
H     6.082000000    -0.348000000    -3.710000000
C     5.625000000    -0.686000000    -1.617000000
O     6.232000000    -1.951000000    -1.640000000
C     6.201000000    -2.902000000    -0.638000000
C     7.017000000    -2.680000000     0.506000000
H     7.781000000    -1.912000000     0.409000000
C     6.790000000    -3.480000000     1.683000000
H     7.499000000    -3.318000000     2.491000000
C     5.841000000    -4.487000000     1.644000000
H     5.706000000    -5.141000000     2.501000000
C     5.064000000    -4.647000000     0.496000000
C     5.245000000    -3.915000000    -0.667000000
H     4.633000000    -4.106000000    -1.544000000
C    -0.166000000     0.279000000    -2.276000000
H    -0.769000000     0.723000000    -3.063000000
C    -0.567000000     0.456000000    -0.959000000
H    -1.478000000     1.021000000    -0.780000000
C     0.218000000     0.035000000     0.049000000
H    -0.124000000     0.306000000     1.026000000
C     1.320000000    -0.809000000    -0.202000000
H     1.936000000    -1.132000000     0.634000000
C     1.598000000    -1.130000000    -1.512000000
H     2.379000000    -1.848000000    -1.747000000
C     0.860000000    -0.606000000    -2.627000000
C     1.200000000    -0.988000000    -4.052000000
O     1.831000000    -1.931000000    -4.416000000
O     0.504000000    -0.426000000    -4.915000000
O    -2.196000000    -1.215000000    -7.455000000
H    -3.058000000    -1.433000000    -7.101000000
H    -1.586000000    -1.749000000    -6.946000000
O     4.011000000    -3.257000000    -5.375000000
H     3.367000000    -2.632000000    -5.042000000
H     3.772000000    -4.088000000    -4.964000000
O    -0.543000000     1.034000000    -7.390000000
H    -1.310000000     0.473000000    -7.500000000
H    -0.150000000     0.745000000    -6.567000000
O     6.571000000    -3.381000000    -6.245000000
H     7.046000000    -2.550000000    -6.257000000
H     5.758000000    -3.186000000    -5.778000000
O     1.100000000    -4.620000000    -3.944000000
H     1.131000000    -3.706000000    -4.225000000
H     1.937000000    -4.763000000    -3.502000000
O    -0.826000000     2.010000000    -9.921000000
H    -0.377000000     1.347000000   -10.445000000
H    -0.904000000     1.616000000    -9.052000000
O     3.124000000    -2.042000000    -9.707000000
H     2.769000000    -2.172000000   -10.587000000
H     2.355000000    -1.877000000    -9.162000000
O     7.320000000    -3.954000000    -3.624000000
H     7.361000000    -3.702000000    -4.546000000
H     6.677000000    -3.357000000    -3.240000000
O     2.655000000    -0.004000000    -6.700000000
H     2.097000000    -0.418000000    -6.041000000
H     3.538000000    -0.056000000    -6.333000000
O     0.826000000    -7.355000000    -3.068000000
H     0.932000000    -6.460000000    -3.390000000
H     1.520000000    -7.850000000    -3.504000000
O     0.498000000    -0.014000000   -10.819000000
H     1.362000000    -0.136000000   -11.212000000
H     0.523000000    -0.538000000   -10.018000000
O     3.022000000    -4.790000000    -8.019000000
H     3.043000000    -3.877000000    -7.732000000
H     3.749000000    -5.204000000    -7.553000000
O     4.671000000     1.229000000    -9.399000000
H     5.544000000     0.897000000    -9.609000000
H     4.451000000     0.815000000    -8.564000000
O     5.296000000     0.153000000    -6.388000000
H     5.589000000     0.865000000    -5.819000000
H     6.103000000    -0.219000000    -6.741000000
O     1.767000000     2.319000000    -7.771000000
H     0.851000000     2.082000000    -7.919000000
H     2.170000000     1.519000000    -7.435000000
O     3.651000000    -5.430000000    -3.500000000
H     3.339000000    -6.178000000    -4.010000000
H     4.449000000    -5.746000000    -3.075000000
O     0.818000000    -1.635000000    -8.593000000
H     1.333000000    -1.156000000    -7.943000000
H     0.019000000    -1.884000000    -8.129000000
O    -0.309000000    -6.232000000    -6.872000000
H    -0.228000000    -7.185000000    -6.856000000
H     0.219000000    -5.934000000    -6.131000000
O    -0.366000000    -2.541000000    -6.258000000
H    -0.130000000    -3.355000000    -5.815000000
H     0.179000000    -1.874000000    -5.841000000
