215
-1449.95488
C    -5.205000000     0.068000000    -1.308000000
H    -5.335000000     1.146000000    -1.255000000
C    -4.747000000    -0.684000000    -0.182000000
C    -4.459000000    -2.052000000    -0.350000000
H    -3.968000000    -2.474000000     0.523000000
C    -4.257000000    -0.006000000     1.133000000
O    -4.815000000     1.325000000     1.367000000
H    -3.161000000     0.065000000     1.079000000
O    -4.534000000    -0.758000000     2.325000000
C    -3.454000000    -1.033000000     3.146000000
C    -2.581000000    -2.130000000     2.878000000
H    -2.996000000    -2.854000000     2.181000000
C    -1.443000000    -2.305000000     3.652000000
O    -0.688000000    -3.389000000     3.439000000
C    -1.004000000    -1.280000000     4.506000000
C     0.261000000    -1.481000000     5.297000000
H     0.196000000    -0.984000000     6.266000000
C     1.463000000    -1.032000000     4.499000000
C     1.927000000     0.281000000     4.673000000
H     1.387000000     0.957000000     5.331000000
H     0.412000000    -2.537000000     5.532000000
C    -1.814000000    -0.172000000     4.695000000
H    -1.563000000     0.682000000     5.319000000
C    -3.031000000    -0.035000000     4.009000000
C    -3.773000000     1.337000000     4.109000000
H    -3.345000000     1.779000000     5.012000000
H    -4.846000000     1.171000000     4.225000000
C    -3.346000000     2.324000000     2.982000000
C    -2.379000000     3.260000000     3.269000000
H    -2.162000000     3.314000000     4.333000000
C    -3.903000000     2.246000000     1.722000000
C    -3.302000000     3.008000000     0.679000000
H    -3.622000000     2.815000000    -0.341000000
C    -2.213000000     3.839000000     0.933000000
O    -1.682000000     4.586000000    -0.117000000
C    -0.367000000     4.291000000    -0.730000000
C    -0.312000000     4.400000000    -2.209000000
C     0.853000000     4.766000000    -2.892000000
H     1.732000000     5.113000000    -2.355000000
C    -1.401000000     3.869000000    -2.908000000
H    -2.306000000     3.548000000    -2.399000000
O     0.604000000     5.079000000    -0.067000000
H    -0.175000000     3.234000000    -0.493000000
C    -1.827000000     4.034000000     2.257000000
C    -0.665000000     4.977000000     2.610000000
H    -0.642000000     5.249000000     3.668000000
H    -0.778000000     5.877000000     2.002000000
C     0.730000000     4.346000000     2.229000000
C     1.473000000     3.597000000     3.139000000
H     1.136000000     3.375000000     4.148000000
C     1.242000000     4.469000000     0.978000000
C     2.409000000     3.802000000     0.578000000
H     2.701000000     3.874000000    -0.466000000
C     3.080000000     3.047000000     1.508000000
O     4.176000000     2.328000000     1.009000000
C     3.964000000     0.852000000     0.759000000
C     4.568000000     0.347000000    -0.531000000
C     4.729000000     1.231000000    -1.650000000
H     4.566000000     2.293000000    -1.480000000
C     4.560000000    -1.006000000    -0.748000000
H     4.226000000    -1.651000000     0.061000000
O     4.515000000     0.218000000     1.955000000
H     2.873000000     0.709000000     0.760000000
C     2.701000000     3.026000000     2.815000000
C     3.413000000     2.134000000     3.897000000
H     3.428000000     2.566000000     4.900000000
H     4.476000000     2.210000000     3.660000000
C     2.997000000     0.702000000     3.841000000
C     3.625000000    -0.205000000     2.973000000
C     3.197000000    -1.543000000     2.966000000
H     3.677000000    -2.242000000     2.285000000
C     2.146000000    -1.916000000     3.686000000
O     1.631000000    -3.163000000     3.454000000
C     0.464000000    -3.237000000     2.563000000
H     0.431000000    -2.312000000     1.969000000
C     0.528000000    -4.524000000     1.667000000
C    -0.662000000    -5.165000000     1.375000000
H    -1.641000000    -4.852000000     1.728000000
C     1.708000000    -5.014000000     1.126000000
H     2.644000000    -4.468000000     1.207000000
C     1.701000000    -6.083000000     0.272000000
O     2.842000000    -6.551000000    -0.359000000
C     0.584000000    -6.884000000     0.144000000
H     0.534000000    -7.803000000    -0.433000000
C    -0.632000000    -6.383000000     0.700000000
O    -1.777000000    -7.185000000     0.611000000
C    -2.963000000    -6.639000000     0.170000000
C    -2.948000000    -5.537000000    -0.677000000
H    -2.016000000    -5.204000000    -1.126000000
C    -4.181000000    -7.145000000     0.559000000
H    -4.266000000    -7.972000000     1.260000000
C    -5.365000000    -6.516000000     0.265000000
H    -6.327000000    -6.825000000     0.666000000
C    -5.353000000    -5.350000000    -0.492000000
H    -6.263000000    -4.815000000    -0.753000000
C    -4.131000000    -4.915000000    -0.968000000
O    -4.076000000    -3.870000000    -1.868000000
C    -4.590000000    -2.622000000    -1.572000000
C    -5.228000000    -1.962000000    -2.602000000
H    -5.352000000    -2.374000000    -3.600000000
C    -5.455000000    -0.587000000    -2.518000000
O    -5.741000000     0.153000000    -3.619000000
C    -5.322000000     1.465000000    -3.739000000
C    -4.076000000     1.706000000    -4.341000000
H    -3.430000000     0.886000000    -4.645000000
C    -6.204000000     2.426000000    -3.390000000
H    -7.207000000     2.144000000    -3.080000000
C    -5.818000000     3.734000000    -3.584000000
H    -6.586000000     4.472000000    -3.366000000
C    -4.574000000     4.080000000    -4.071000000
H    -4.318000000     5.129000000    -4.195000000
C    -3.730000000     3.056000000    -4.490000000
O    -2.434000000     3.331000000    -5.051000000
C    -1.329000000     3.777000000    -4.318000000
C    -0.185000000     4.278000000    -5.003000000
H    -0.233000000     4.235000000    -6.088000000
C     0.910000000     4.643000000    -4.326000000
O     2.061000000     4.994000000    -5.092000000
C     3.378000000     4.635000000    -4.750000000
C     3.688000000     3.252000000    -4.597000000
H     2.923000000     2.484000000    -4.664000000
C     4.286000000     5.606000000    -4.283000000
H     3.983000000     6.648000000    -4.355000000
C     5.582000000     5.209000000    -3.898000000
H     6.282000000     5.987000000    -3.606000000
C     5.866000000     3.850000000    -3.836000000
H     6.865000000     3.532000000    -3.547000000
C     4.896000000     2.905000000    -4.120000000
O     5.189000000     1.573000000    -3.960000000
C     5.020000000     0.799000000    -2.884000000
C     5.193000000    -0.617000000    -3.037000000
H     5.401000000    -0.947000000    -4.051000000
C     4.898000000    -1.501000000    -2.011000000
O     4.870000000    -2.872000000    -2.365000000
C     5.025000000    -3.854000000    -1.511000000
C     6.155000000    -3.975000000    -0.808000000
H     6.985000000    -3.279000000    -0.909000000
C     6.209000000    -5.089000000     0.065000000
H     7.143000000    -5.255000000     0.596000000
C     5.152000000    -6.022000000     0.072000000
H     5.185000000    -6.954000000     0.631000000
C     3.982000000    -5.733000000    -0.617000000
C     3.911000000    -4.653000000    -1.406000000
H     2.989000000    -4.261000000    -1.829000000
C    -1.328000000    -0.076000000    -1.748000000
H    -2.229000000     0.287000000    -2.236000000
C    -0.905000000     0.506000000    -0.529000000
H    -1.488000000     1.307000000    -0.082000000
C     0.287000000     0.081000000     0.059000000
H     0.475000000     0.493000000     0.962000000
C     0.953000000    -1.032000000    -0.427000000
H     1.740000000    -1.421000000     0.214000000
C     0.538000000    -1.636000000    -1.632000000
H     1.102000000    -2.425000000    -2.122000000
C    -0.628000000    -1.170000000    -2.261000000
C    -1.035000000    -1.776000000    -3.541000000
O    -0.355000000    -2.702000000    -3.907000000
O    -1.806000000    -1.241000000    -4.302000000
O    -3.005000000     0.406000000    -7.399000000
H    -3.038000000     1.359000000    -7.483000000
H    -3.341000000     0.080000000    -8.235000000
O     1.956000000    -4.071000000    -4.544000000
H     1.145000000    -3.612000000    -4.328000000
H     1.747000000    -4.567000000    -5.335000000
O     1.684000000     1.949000000    -6.850000000
H     0.987000000     1.490000000    -6.381000000
H     2.494000000     1.589000000    -6.489000000
O     3.478000000    -0.947000000    -6.676000000
H     3.937000000    -0.151000000    -6.945000000
H     3.020000000    -0.700000000    -5.873000000
O    -2.765000000    -4.386000000    -9.456000000
H    -2.759000000    -4.765000000    -8.577000000
H    -2.622000000    -5.132000000   -10.039000000
O    -6.805000000    -2.025000000    -6.257000000
H    -6.814000000    -2.462000000    -7.108000000
H    -5.876000000    -1.906000000    -6.059000000
O    -3.602000000    -5.778000000    -6.902000000
H    -2.843000000    -6.358000000    -6.956000000
H    -3.452000000    -5.260000000    -6.111000000
O    -1.986000000    -7.944000000    -3.123000000
H    -2.892000000    -7.969000000    -2.815000000
H    -2.059000000    -7.860000000    -4.074000000
O     1.984000000    -0.615000000    -4.439000000
H     2.523000000    -0.642000000    -3.649000000
H     1.242000000    -1.187000000    -4.243000000
O    -3.510000000    -4.362000000    -4.773000000
H    -3.890000000    -3.484000000    -4.808000000
H    -3.310000000    -4.499000000    -3.847000000
O     2.530000000    -2.951000000    -9.136000000
H     1.952000000    -2.378000000    -8.632000000
H     3.357000000    -2.472000000    -9.186000000
O    -3.990000000    -1.793000000    -5.786000000
H    -3.625000000    -1.465000000    -4.964000000
H    -3.499000000    -1.334000000    -6.467000000
O     4.548000000    -3.453000000    -5.565000000
H     4.220000000    -2.671000000    -6.008000000
H     3.830000000    -3.722000000    -4.991000000
O     0.177000000    -6.171000000    -3.044000000
H    -0.155000000    -5.283000000    -3.176000000
H    -0.597000000    -6.684000000    -2.810000000
O    -1.018000000    -3.677000000    -6.505000000
H    -1.932000000    -3.620000000    -6.784000000
H    -1.014000000    -3.311000000    -5.621000000
O     2.740000000    -7.302000000    -3.557000000
H     2.990000000    -7.804000000    -2.782000000
H     2.037000000    -6.728000000    -3.254000000
O     0.378000000    -1.702000000    -8.155000000
H    -0.125000000    -2.197000000    -7.509000000
H    -0.113000000    -0.888000000    -8.269000000
O    -0.007000000    -5.767000000    -7.953000000
H    -0.446000000    -6.320000000    -7.307000000
H     0.026000000    -4.902000000    -7.545000000
O    -0.600000000     0.600000000    -6.095000000
H    -1.468000000     0.498000000    -6.485000000
H    -0.596000000    -0.010000000    -5.357000000
