215
-1481.63595
C    -4.589000000     0.152000000    -1.965000000
H    -4.435000000     1.223000000    -1.861000000
C    -4.720000000    -0.674000000    -0.829000000
C    -5.047000000    -2.001000000    -1.018000000
H    -5.401000000    -2.554000000    -0.152000000
C    -4.231000000    -0.122000000     0.543000000
O    -4.690000000     1.169000000     0.767000000
H    -3.134000000    -0.136000000     0.612000000
O    -4.737000000    -0.978000000     1.592000000
C    -3.760000000    -1.211000000     2.554000000
C    -3.051000000    -2.446000000     2.471000000
H    -3.396000000    -3.200000000     1.768000000
C    -1.955000000    -2.725000000     3.403000000
O    -1.145000000    -3.777000000     3.062000000
C    -1.617000000    -1.712000000     4.350000000
C    -0.359000000    -1.821000000     5.194000000
H    -0.490000000    -1.383000000     6.186000000
C     0.858000000    -1.330000000     4.538000000
C     1.314000000    -0.028000000     4.824000000
H     0.776000000     0.543000000     5.576000000
H    -0.173000000    -2.879000000     5.388000000
C    -2.401000000    -0.512000000     4.434000000
H    -2.064000000     0.303000000     5.070000000
C    -3.460000000    -0.252000000     3.552000000
C    -4.189000000     1.126000000     3.536000000
H    -4.469000000     1.494000000     4.525000000
H    -5.229000000     1.095000000     3.205000000
C    -3.467000000     2.112000000     2.652000000
C    -2.558000000     3.055000000     3.247000000
H    -2.251000000     2.933000000     4.283000000
C    -3.793000000     2.124000000     1.270000000
C    -3.030000000     2.980000000     0.525000000
H    -3.323000000     2.912000000    -0.520000000
C    -2.132000000     3.929000000     1.019000000
O    -1.445000000     4.703000000     0.106000000
C    -0.185000000     4.195000000    -0.371000000
C    -0.114000000     4.096000000    -1.847000000
C     1.110000000     3.784000000    -2.500000000
H     1.995000000     3.542000000    -1.918000000
C    -1.272000000     4.138000000    -2.623000000
H    -2.226000000     4.282000000    -2.122000000
O     0.763000000     4.989000000     0.292000000
H    -0.068000000     3.165000000     0.000000000
C    -1.902000000     3.884000000     2.422000000
C    -0.817000000     4.816000000     2.990000000
H    -0.938000000     4.992000000     4.061000000
H    -1.047000000     5.800000000     2.576000000
C     0.564000000     4.269000000     2.745000000
C     1.103000000     3.408000000     3.661000000
H     0.517000000     3.129000000     4.533000000
C     1.292000000     4.539000000     1.506000000
C     2.504000000     3.985000000     1.356000000
H     3.011000000     4.080000000     0.399000000
C     3.137000000     3.164000000     2.341000000
O     4.246000000     2.438000000     2.021000000
C     4.082000000     1.088000000     1.594000000
C     4.896000000     0.674000000     0.399000000
C     5.303000000     1.616000000    -0.566000000
H     5.172000000     2.675000000    -0.362000000
C     5.157000000    -0.743000000     0.248000000
H     4.688000000    -1.492000000     0.881000000
O     4.319000000     0.138000000     2.717000000
H     3.069000000     0.957000000     1.186000000
C     2.454000000     2.891000000     3.491000000
C     2.961000000     1.915000000     4.576000000
H     2.625000000     2.206000000     5.573000000
H     4.053000000     1.898000000     4.572000000
C     2.423000000     0.514000000     4.183000000
C     3.148000000    -0.288000000     3.328000000
C     2.733000000    -1.605000000     3.065000000
H     3.264000000    -2.169000000     2.303000000
C     1.581000000    -2.137000000     3.631000000
O     1.066000000    -3.339000000     3.159000000
C    -0.017000000    -3.399000000     2.248000000
H    -0.117000000    -2.393000000     1.813000000
C     0.198000000    -4.404000000     1.134000000
C    -0.882000000    -4.884000000     0.425000000
H    -1.898000000    -4.698000000     0.762000000
C     1.488000000    -4.761000000     0.726000000
H     2.423000000    -4.400000000     1.145000000
C     1.631000000    -5.574000000    -0.414000000
O     2.837000000    -5.758000000    -0.987000000
C     0.495000000    -6.075000000    -1.081000000
H     0.638000000    -6.653000000    -1.991000000
C    -0.749000000    -5.801000000    -0.648000000
O    -1.758000000    -6.315000000    -1.397000000
C    -3.161000000    -6.136000000    -1.189000000
C    -3.786000000    -5.129000000    -1.914000000
H    -3.199000000    -4.445000000    -2.521000000
C    -3.935000000    -7.020000000    -0.369000000
H    -3.468000000    -7.875000000     0.114000000
C    -5.299000000    -6.808000000    -0.309000000
H    -5.881000000    -7.415000000     0.379000000
C    -5.881000000    -5.720000000    -0.935000000
H    -6.967000000    -5.669000000    -0.962000000
C    -5.131000000    -4.852000000    -1.753000000
O    -5.754000000    -3.833000000    -2.405000000
C    -5.351000000    -2.551000000    -2.255000000
C    -5.152000000    -1.702000000    -3.334000000
H    -5.356000000    -2.103000000    -4.324000000
C    -4.760000000    -0.377000000    -3.262000000
O    -4.662000000     0.423000000    -4.386000000
C    -4.649000000     1.762000000    -4.430000000
C    -3.450000000     2.385000000    -4.678000000
H    -2.573000000     1.743000000    -4.662000000
C    -5.809000000     2.472000000    -4.244000000
H    -6.754000000     1.956000000    -4.099000000
C    -5.727000000     3.846000000    -4.389000000
H    -6.633000000     4.437000000    -4.287000000
C    -4.523000000     4.543000000    -4.560000000
H    -4.495000000     5.622000000    -4.694000000
C    -3.361000000     3.782000000    -4.778000000
O    -2.169000000     4.428000000    -4.845000000
C    -1.124000000     4.132000000    -4.011000000
C     0.087000000     3.976000000    -4.653000000
H     0.128000000     4.127000000    -5.729000000
C     1.224000000     3.728000000    -3.871000000
O     2.450000000     3.599000000    -4.474000000
C     3.674000000     3.831000000    -3.809000000
C     4.396000000     2.799000000    -3.370000000
H     4.027000000     1.778000000    -3.426000000
C     4.071000000     5.167000000    -3.871000000
H     3.441000000     5.909000000    -4.356000000
C     5.377000000     5.442000000    -3.453000000
H     5.780000000     6.451000000    -3.478000000
C     6.136000000     4.402000000    -2.988000000
H     7.118000000     4.614000000    -2.574000000
C     5.704000000     3.086000000    -2.974000000
O     6.582000000     2.127000000    -2.572000000
C     6.122000000     1.210000000    -1.584000000
C     6.441000000    -0.166000000    -1.683000000
H     7.098000000    -0.526000000    -2.471000000
C     5.874000000    -1.125000000    -0.850000000
O     6.287000000    -2.449000000    -1.208000000
C     5.838000000    -3.630000000    -0.798000000
C     6.756000000    -4.463000000    -0.179000000
H     7.805000000    -4.241000000    -0.002000000
C     6.276000000    -5.709000000     0.299000000
H     6.911000000    -6.420000000     0.821000000
C     4.990000000    -6.091000000     0.083000000
H     4.604000000    -7.050000000     0.420000000
C     4.122000000    -5.311000000    -0.621000000
C     4.535000000    -4.106000000    -1.084000000
H     3.922000000    -3.381000000    -1.613000000
C    -0.563000000     0.761000000    -2.355000000
H    -1.392000000     1.110000000    -2.966000000
C    -0.837000000     0.724000000    -0.989000000
H    -1.806000000     1.064000000    -0.633000000
C     0.144000000     0.372000000    -0.113000000
H    -0.004000000     0.429000000     0.922000000
C     1.349000000    -0.138000000    -0.622000000
H     2.062000000    -0.585000000     0.066000000
C     1.616000000    -0.203000000    -1.987000000
H     2.487000000    -0.641000000    -2.468000000
C     0.655000000     0.300000000    -2.869000000
C     0.960000000     0.133000000    -4.351000000
O     2.085000000    -0.369000000    -4.681000000
O     0.067000000     0.435000000    -5.162000000
O     0.609000000     5.210000000    -8.713000000
H     0.639000000     4.262000000    -8.847000000
H    -0.322000000     5.427000000    -8.751000000
O     4.299000000    -5.320000000    -4.767000000
H     4.028000000    -4.416000000    -4.606000000
H     5.210000000    -5.352000000    -4.475000000
O     2.978000000     1.035000000   -10.130000000
H     2.216000000     0.455000000   -10.113000000
H     2.832000000     1.642000000    -9.405000000
O    -2.196000000     1.121000000    -7.874000000
H    -2.731000000     1.915000000    -7.899000000
H    -1.327000000     1.426000000    -7.616000000
O    -1.215000000    -5.270000000    -5.728000000
H    -0.281000000    -5.145000000    -5.565000000
H    -1.625000000    -4.469000000    -5.400000000
O     0.588000000    -0.148000000    -9.680000000
H     0.878000000    -0.759000000    -9.002000000
H     0.139000000     0.548000000    -9.199000000
O     4.710000000     0.389000000    -5.683000000
H     3.880000000    -0.059000000    -5.520000000
H     4.472000000     1.147000000    -6.216000000
O     3.381000000     2.527000000    -6.990000000
H     4.036000000     2.927000000    -7.562000000
H     3.271000000     3.156000000    -6.277000000
O    -1.305000000    -2.652000000    -2.076000000
H    -0.750000000    -3.243000000    -1.567000000
H    -0.964000000    -1.779000000    -1.885000000
O     4.198000000    -1.959000000    -8.324000000
H     4.772000000    -1.969000000    -7.558000000
H     3.321000000    -1.826000000    -7.965000000
O    -2.372000000    -0.805000000    -5.929000000
H    -1.663000000    -0.424000000    -5.411000000
H    -2.547000000    -0.156000000    -6.610000000
O    -2.516000000    -3.117000000    -4.589000000
H    -2.021000000    -2.981000000    -3.781000000
H    -2.646000000    -2.236000000    -4.941000000
O     2.821000000    -2.980000000    -4.426000000
H     2.528000000    -2.091000000    -4.628000000
H     2.021000000    -3.447000000    -4.185000000
O     5.330000000    -2.256000000    -5.740000000
H     4.426000000    -2.402000000    -5.462000000
H     5.549000000    -1.389000000    -5.398000000
O     1.821000000    -1.274000000    -7.313000000
H     1.617000000    -0.791000000    -6.512000000
H     1.125000000    -1.926000000    -7.384000000
O     1.511000000    -5.742000000    -5.316000000
H     2.415000000    -5.709000000    -5.003000000
H     1.213000000    -6.625000000    -5.093000000
O     2.612000000    -4.575000000    -8.186000000
H     2.363000000    -5.072000000    -7.407000000
H     3.338000000    -4.023000000    -7.896000000
O     0.565000000     1.764000000    -7.389000000
H     0.346000000     1.392000000    -6.535000000
H     1.522000000     1.789000000    -7.400000000
O    -0.473000000    -2.715000000    -7.263000000
H    -0.917000000    -3.378000000    -7.791000000
H    -1.180000000    -2.259000000    -6.807000000
