215
-1471.70608
C    -4.672000000    -0.541000000    -1.326000000
H    -4.484000000     0.520000000    -1.178000000
C    -4.645000000    -1.321000000    -0.184000000
C    -4.931000000    -2.676000000    -0.281000000
H    -4.961000000    -3.274000000     0.626000000
C    -4.134000000    -0.622000000     1.029000000
O    -4.784000000     0.608000000     1.321000000
H    -3.055000000    -0.562000000     0.826000000
O    -4.444000000    -1.390000000     2.233000000
C    -3.311000000    -1.525000000     2.995000000
C    -2.487000000    -2.626000000     2.867000000
H    -2.784000000    -3.456000000     2.230000000
C    -1.306000000    -2.820000000     3.564000000
O    -0.431000000    -3.795000000     3.196000000
C    -0.821000000    -1.734000000     4.414000000
C     0.493000000    -1.790000000     5.130000000
H     0.368000000    -1.489000000     6.172000000
C     1.616000000    -1.085000000     4.349000000
C     2.010000000     0.175000000     4.662000000
H     1.412000000     0.699000000     5.403000000
H     0.810000000    -2.834000000     5.172000000
C    -1.743000000    -0.670000000     4.685000000
H    -1.587000000     0.092000000     5.444000000
C    -2.949000000    -0.576000000     3.958000000
C    -3.865000000     0.629000000     4.137000000
H    -3.844000000     1.056000000     5.142000000
H    -4.915000000     0.360000000     4.008000000
C    -3.541000000     1.733000000     3.152000000
C    -2.685000000     2.712000000     3.510000000
H    -2.400000000     2.877000000     4.546000000
C    -4.002000000     1.648000000     1.809000000
C    -3.467000000     2.556000000     0.951000000
H    -3.777000000     2.550000000    -0.090000000
C    -2.581000000     3.558000000     1.290000000
O    -2.112000000     4.268000000     0.218000000
C    -0.882000000     4.064000000    -0.444000000
C    -0.935000000     4.198000000    -1.938000000
C     0.221000000     4.256000000    -2.720000000
H     1.190000000     4.104000000    -2.251000000
C    -2.148000000     4.279000000    -2.652000000
H    -3.092000000     4.255000000    -2.114000000
O     0.017000000     5.025000000     0.199000000
H    -0.571000000     3.024000000    -0.263000000
C    -2.165000000     3.671000000     2.605000000
C    -1.069000000     4.645000000     3.042000000
H    -1.123000000     4.634000000     4.132000000
H    -1.175000000     5.684000000     2.721000000
C     0.322000000     4.193000000     2.562000000
C     1.180000000     3.552000000     3.506000000
H     0.842000000     3.525000000     4.539000000
C     0.805000000     4.503000000     1.250000000
C     2.041000000     3.973000000     0.888000000
H     2.358000000     4.098000000    -0.144000000
C     2.837000000     3.248000000     1.794000000
O     3.963000000     2.689000000     1.256000000
C     3.966000000     1.295000000     0.894000000
C     4.664000000     1.111000000    -0.423000000
C     4.875000000     2.192000000    -1.283000000
H     4.747000000     3.223000000    -0.964000000
C     5.079000000    -0.137000000    -0.852000000
H     4.880000000    -0.996000000    -0.216000000
O     4.565000000     0.526000000     2.011000000
H     2.975000000     0.817000000     0.881000000
C     2.434000000     3.145000000     3.154000000
C     3.297000000     2.259000000     4.097000000
H     3.019000000     2.527000000     5.118000000
H     4.289000000     2.627000000     3.828000000
C     3.061000000     0.814000000     3.942000000
C     3.727000000     0.014000000     2.960000000
C     3.343000000    -1.310000000     2.725000000
H     3.832000000    -1.908000000     1.960000000
C     2.257000000    -1.820000000     3.304000000
O     1.857000000    -3.089000000     2.976000000
C     0.575000000    -3.288000000     2.267000000
H     0.172000000    -2.367000000     1.821000000
C     0.767000000    -4.253000000     1.158000000
C    -0.266000000    -4.980000000     0.597000000
H    -1.249000000    -4.906000000     1.057000000
C     2.060000000    -4.362000000     0.608000000
H     2.884000000    -3.787000000     1.022000000
C     2.263000000    -5.183000000    -0.514000000
O     3.487000000    -5.300000000    -1.090000000
C     1.252000000    -6.099000000    -0.937000000
H     1.469000000    -6.873000000    -1.668000000
C    -0.027000000    -5.918000000    -0.414000000
O    -1.020000000    -6.827000000    -0.754000000
C    -2.352000000    -6.730000000    -0.445000000
C    -3.071000000    -5.764000000    -1.144000000
H    -2.600000000    -5.209000000    -1.952000000
C    -2.940000000    -7.514000000     0.549000000
H    -2.303000000    -8.268000000     1.005000000
C    -4.285000000    -7.372000000     0.857000000
H    -4.846000000    -7.912000000     1.615000000
C    -5.002000000    -6.374000000     0.168000000
H    -6.087000000    -6.389000000     0.227000000
C    -4.414000000    -5.636000000    -0.843000000
O    -5.087000000    -4.693000000    -1.578000000
C    -4.921000000    -3.291000000    -1.535000000
C    -4.876000000    -2.517000000    -2.710000000
H    -4.888000000    -3.076000000    -3.642000000
C    -4.738000000    -1.162000000    -2.553000000
O    -4.566000000    -0.367000000    -3.688000000
C    -5.054000000     0.895000000    -3.877000000
C    -4.054000000     1.862000000    -3.971000000
H    -2.993000000     1.624000000    -3.984000000
C    -6.349000000     1.075000000    -3.711000000
H    -7.031000000     0.235000000    -3.603000000
C    -6.765000000     2.437000000    -3.816000000
H    -7.839000000     2.604000000    -3.794000000
C    -5.807000000     3.488000000    -4.107000000
H    -6.135000000     4.498000000    -4.338000000
C    -4.461000000     3.175000000    -4.158000000
O    -3.497000000     4.105000000    -4.645000000
C    -2.250000000     4.264000000    -4.031000000
C    -1.080000000     4.265000000    -4.790000000
H    -1.096000000     4.096000000    -5.863000000
C     0.181000000     4.297000000    -4.134000000
O     1.337000000     4.044000000    -4.893000000
C     2.609000000     4.493000000    -4.482000000
C     3.645000000     3.567000000    -4.328000000
H     3.449000000     2.561000000    -4.688000000
C     2.879000000     5.858000000    -4.371000000
H     2.036000000     6.531000000    -4.506000000
C     4.180000000     6.318000000    -4.013000000
H     4.307000000     7.398000000    -4.019000000
C     5.132000000     5.353000000    -3.639000000
H     6.132000000     5.726000000    -3.435000000
C     4.868000000     3.952000000    -3.766000000
O     5.793000000     2.991000000    -3.371000000
C     5.435000000     1.976000000    -2.540000000
C     5.986000000     0.703000000    -2.832000000
H     6.485000000     0.538000000    -3.784000000
C     5.789000000    -0.407000000    -2.050000000
O     6.394000000    -1.620000000    -2.345000000
C     6.164000000    -2.825000000    -1.707000000
C     7.164000000    -3.350000000    -0.878000000
H     8.153000000    -2.920000000    -0.743000000
C     6.981000000    -4.512000000    -0.092000000
H     7.736000000    -4.988000000     0.529000000
C     5.677000000    -5.054000000    -0.096000000
H     5.348000000    -5.980000000     0.368000000
C     4.642000000    -4.540000000    -0.924000000
C     4.940000000    -3.445000000    -1.769000000
H     4.101000000    -3.050000000    -2.336000000
C    -0.394000000     0.349000000    -2.397000000
H    -0.983000000     0.906000000    -3.121000000
C    -0.804000000     0.295000000    -1.116000000
H    -1.730000000     0.776000000    -0.814000000
C    -0.013000000    -0.265000000    -0.120000000
H    -0.385000000    -0.287000000     0.964000000
C     1.186000000    -0.782000000    -0.378000000
H     1.835000000    -1.136000000     0.419000000
C     1.689000000    -0.688000000    -1.663000000
H     2.670000000    -1.129000000    -1.823000000
C     0.867000000    -0.198000000    -2.664000000
C     1.408000000    -0.141000000    -4.079000000
O     2.404000000    -0.850000000    -4.298000000
O     0.733000000     0.394000000    -4.982000000
O     1.588000000     6.080000000    -7.624000000
H     2.080000000     5.267000000    -7.512000000
H     2.237000000     6.713000000    -7.930000000
O    -0.463000000    -3.450000000    -3.262000000
H    -0.764000000    -2.707000000    -3.786000000
H    -0.344000000    -3.091000000    -2.383000000
O    -1.616000000     2.146000000    -8.787000000
H    -0.847000000     2.213000000    -8.220000000
H    -1.572000000     2.924000000    -9.342000000
O    -2.402000000    -0.506000000    -9.319000000
H    -2.163000000     0.369000000    -9.012000000
H    -2.924000000    -0.876000000    -8.607000000
O     5.085000000    -1.491000000    -4.871000000
H     5.556000000    -1.681000000    -4.059000000
H     4.209000000    -1.234000000    -4.585000000
O    -2.958000000    -2.607000000    -6.983000000
H    -3.666000000    -3.171000000    -6.672000000
H    -2.599000000    -2.215000000    -6.187000000
O     4.239000000     4.814000000    -8.022000000
H     4.745000000     4.118000000    -7.604000000
H     4.475000000     4.758000000    -8.948000000
O     5.403000000     2.627000000    -6.837000000
H     6.022000000     1.918000000    -7.011000000
H     4.541000000     2.214000000    -6.902000000
O     4.522000000    -5.253000000    -4.170000000
H     5.045000000    -4.560000000    -4.574000000
H     3.876000000    -4.787000000    -3.639000000
O     4.751000000    -1.031000000   -10.205000000
H     5.224000000    -1.847000000   -10.039000000
H     4.446000000    -0.752000000    -9.342000000
O     3.329000000     0.866000000    -6.615000000
H     2.790000000     0.589000000    -5.875000000
H     3.639000000     0.048000000    -7.005000000
O     2.651000000    -3.999000000    -7.156000000
H     1.717000000    -4.032000000    -7.361000000
H     2.685000000    -3.956000000    -6.200000000
O    -1.944000000    -1.432000000    -4.691000000
H    -1.459000000    -0.607000000    -4.713000000
H    -2.863000000    -1.171000000    -4.734000000
O     4.032000000    -1.712000000    -7.661000000
H     3.360000000    -2.306000000    -7.327000000
H     4.739000000    -1.763000000    -7.017000000
O     0.414000000    -0.750000000    -7.230000000
H     0.526000000    -0.673000000    -6.283000000
H     0.093000000     0.109000000    -7.504000000
O     2.121000000    -3.542000000    -4.427000000
H     1.184000000    -3.725000000    -4.357000000
H     2.188000000    -2.592000000    -4.333000000
O    -0.141000000    -3.422000000    -7.205000000
H     0.217000000    -2.537000000    -7.279000000
H    -1.090000000    -3.301000000    -7.254000000
O    -2.010000000    -5.551000000    -4.494000000
H    -2.027000000    -5.430000000    -5.444000000
H    -1.296000000    -4.988000000    -4.194000000
O     0.384000000     2.125000000    -6.921000000
H     0.537000000     1.585000000    -6.146000000
H     1.256000000     2.415000000    -7.187000000
