215
-1458.80269
C     2.797000000     2.363000000    -3.349000000
H     3.174000000     1.515000000    -3.915000000
C     3.053000000     2.481000000    -1.995000000
C     2.524000000     3.578000000    -1.285000000
H     2.715000000     3.725000000    -0.225000000
C     3.698000000     1.282000000    -1.306000000
O     4.448000000     0.436000000    -2.258000000
H     2.846000000     0.689000000    -0.939000000
O     4.575000000     1.577000000    -0.163000000
C     4.415000000     0.822000000     0.942000000
C     3.596000000     1.455000000     1.860000000
H     3.237000000     2.467000000     1.691000000
C     3.375000000     0.728000000     3.067000000
O     2.607000000     1.424000000     4.020000000
C     3.678000000    -0.642000000     3.228000000
C     3.179000000    -1.456000000     4.403000000
H     3.872000000    -2.301000000     4.399000000
C     1.729000000    -1.913000000     4.304000000
C     1.414000000    -3.160000000     3.731000000
H     2.234000000    -3.838000000     3.508000000
H     3.262000000    -0.804000000     5.275000000
C     4.491000000    -1.175000000     2.222000000
H     4.739000000    -2.225000000     2.354000000
C     4.864000000    -0.490000000     1.085000000
C     5.576000000    -1.167000000    -0.051000000
H     6.143000000    -2.063000000     0.207000000
H     6.306000000    -0.598000000    -0.631000000
C     4.615000000    -1.744000000    -1.071000000
C     3.963000000    -3.015000000    -0.872000000
H     4.218000000    -3.654000000    -0.031000000
C     4.155000000    -0.928000000    -2.163000000
C     3.196000000    -1.407000000    -3.029000000
H     2.942000000    -0.754000000    -3.860000000
C     2.626000000    -2.610000000    -2.870000000
O     1.607000000    -2.992000000    -3.713000000
C     0.281000000    -2.668000000    -3.165000000
C    -0.659000000    -1.960000000    -4.212000000
C    -1.996000000    -1.812000000    -3.897000000
H    -2.382000000    -2.186000000    -2.952000000
C    -0.219000000    -1.392000000    -5.386000000
H     0.779000000    -1.586000000    -5.772000000
O    -0.401000000    -3.905000000    -2.710000000
H     0.451000000    -1.912000000    -2.383000000
C     3.009000000    -3.464000000    -1.804000000
C     2.200000000    -4.734000000    -1.612000000
H     2.763000000    -5.495000000    -1.066000000
H     1.858000000    -5.179000000    -2.548000000
C     0.902000000    -4.592000000    -0.772000000
C     1.001000000    -4.763000000     0.600000000
H     1.974000000    -5.011000000     1.015000000
C    -0.374000000    -4.269000000    -1.384000000
C    -1.542000000    -4.112000000    -0.613000000
H    -2.527000000    -3.745000000    -0.890000000
C    -1.373000000    -4.284000000     0.786000000
O    -2.523000000    -3.988000000     1.482000000
C    -2.470000000    -2.760000000     2.125000000
C    -3.823000000    -2.045000000     1.928000000
C    -4.627000000    -2.277000000     0.785000000
H    -4.310000000    -3.040000000     0.080000000
C    -4.250000000    -1.143000000     2.900000000
H    -3.538000000    -0.907000000     3.686000000
O    -2.201000000    -2.954000000     3.572000000
H    -1.692000000    -2.130000000     1.670000000
C    -0.146000000    -4.652000000     1.370000000
C    -0.073000000    -4.836000000     2.876000000
H     0.787000000    -5.470000000     3.100000000
H    -0.985000000    -5.259000000     3.303000000
C     0.149000000    -3.474000000     3.476000000
C    -0.938000000    -2.644000000     3.875000000
C    -0.618000000    -1.417000000     4.413000000
H    -1.451000000    -0.762000000     4.654000000
C     0.684000000    -1.039000000     4.626000000
O     0.807000000     0.310000000     5.035000000
C     1.195000000     1.232000000     3.993000000
H     1.021000000     0.864000000     2.971000000
C     0.474000000     2.601000000     4.153000000
C     1.015000000     3.730000000     3.569000000
H     1.950000000     3.683000000     3.017000000
C    -0.832000000     2.675000000     4.611000000
H    -1.336000000     1.736000000     4.825000000
C    -1.570000000     3.876000000     4.591000000
O    -2.917000000     3.919000000     4.893000000
C    -0.970000000     5.044000000     4.188000000
H    -1.452000000     6.014000000     4.284000000
C     0.308000000     4.943000000     3.726000000
O     1.025000000     6.056000000     3.433000000
C     1.894000000     6.249000000     2.299000000
C     1.406000000     6.054000000     0.968000000
H     0.389000000     5.683000000     0.863000000
C     3.224000000     6.678000000     2.435000000
H     3.689000000     6.773000000     3.413000000
C     3.988000000     6.763000000     1.280000000
H     5.031000000     7.038000000     1.417000000
C     3.470000000     6.614000000    -0.068000000
H     4.102000000     6.708000000    -0.947000000
C     2.111000000     6.250000000    -0.204000000
O     1.583000000     5.855000000    -1.415000000
C     1.946000000     4.645000000    -1.985000000
C     1.684000000     4.513000000    -3.363000000
H     1.335000000     5.390000000    -3.902000000
C     2.179000000     3.433000000    -4.096000000
O     2.179000000     3.419000000    -5.523000000
C     1.930000000     2.438000000    -6.463000000
C     0.846000000     1.624000000    -6.331000000
H     0.150000000     1.646000000    -5.496000000
C     2.842000000     2.271000000    -7.446000000
H     3.740000000     2.882000000    -7.473000000
C     2.593000000     1.375000000    -8.482000000
H     3.305000000     1.204000000    -9.285000000
C     1.481000000     0.487000000    -8.390000000
H     1.278000000    -0.286000000    -9.127000000
C     0.563000000     0.645000000    -7.359000000
O    -0.512000000    -0.167000000    -7.341000000
C    -1.081000000    -0.680000000    -6.213000000
C    -2.421000000    -0.496000000    -5.861000000
H    -3.095000000     0.138000000    -6.431000000
C    -2.897000000    -1.115000000    -4.749000000
O    -4.219000000    -1.050000000    -4.467000000
C    -4.998000000    -1.916000000    -3.775000000
C    -5.538000000    -1.455000000    -2.579000000
H    -5.312000000    -0.432000000    -2.289000000
C    -5.130000000    -3.266000000    -4.073000000
H    -4.877000000    -3.578000000    -5.083000000
C    -5.916000000    -4.084000000    -3.251000000
H    -6.097000000    -5.134000000    -3.464000000
C    -6.383000000    -3.656000000    -2.014000000
H    -6.925000000    -4.382000000    -1.413000000
C    -6.213000000    -2.311000000    -1.672000000
O    -6.606000000    -1.822000000    -0.455000000
C    -5.841000000    -1.594000000     0.638000000
C    -6.343000000    -0.763000000     1.673000000
H    -7.318000000    -0.287000000     1.611000000
C    -5.559000000    -0.538000000     2.801000000
O    -5.955000000     0.401000000     3.708000000
C    -5.166000000     1.056000000     4.626000000
C    -5.330000000     0.690000000     5.976000000
H    -6.193000000     0.119000000     6.311000000
C    -4.717000000     1.460000000     6.951000000
H    -5.002000000     1.268000000     7.982000000
C    -3.895000000     2.477000000     6.577000000
H    -3.441000000     3.133000000     7.316000000
C    -3.667000000     2.802000000     5.221000000
C    -4.380000000     2.147000000     4.234000000
H    -4.275000000     2.284000000     3.161000000
C    -2.517000000     0.146000000    -0.677000000
H    -3.374000000    -0.426000000    -1.021000000
C    -1.282000000    -0.403000000    -0.772000000
H    -1.058000000    -1.321000000    -1.310000000
C    -0.183000000     0.214000000    -0.117000000
H     0.794000000    -0.191000000    -0.222000000
C    -0.431000000     1.405000000     0.574000000
H     0.371000000     1.943000000     1.073000000
C    -1.727000000     1.905000000     0.786000000
H    -1.999000000     2.859000000     1.231000000
C    -2.768000000     1.257000000     0.137000000
C    -4.189000000     1.775000000     0.118000000
O    -4.587000000     2.929000000     0.500000000
O    -5.042000000     1.279000000    -0.626000000
O    -8.386000000     1.740000000     4.580000000
H    -8.914000000     1.798000000     3.784000000
H    -7.518000000     2.045000000     4.315000000
O    -6.963000000     2.597000000     1.431000000
H    -7.209000000     1.672000000     1.408000000
H    -6.045000000     2.607000000     1.160000000
O    -3.642000000     5.920000000    -3.473000000
H    -3.520000000     5.637000000    -2.566000000
H    -2.974000000     5.442000000    -3.964000000
O    -7.559000000     5.039000000     2.253000000
H    -7.352000000     4.187000000     1.871000000
H    -6.941000000     5.132000000     2.979000000
O    -0.976000000     4.156000000    -1.549000000
H    -0.995000000     3.340000000    -2.048000000
H    -0.060000000     4.258000000    -1.291000000
O    -3.936000000     2.355000000    -3.044000000
H    -4.431000000     1.976000000    -2.318000000
H    -4.005000000     3.301000000    -2.913000000
O    -7.312000000     1.225000000    -1.646000000
H    -6.398000000     1.245000000    -1.362000000
H    -7.706000000     1.997000000    -1.238000000
O    -1.324000000     4.276000000    -4.786000000
H    -1.724000000     3.451000000    -4.511000000
H    -1.176000000     4.169000000    -5.725000000
O    -5.011000000     4.414000000    -1.526000000
H    -5.959000000     4.334000000    -1.629000000
H    -4.793000000     3.798000000    -0.827000000
O    -4.569000000     7.445000000     1.082000000
H    -3.920000000     8.017000000     0.673000000
H    -4.051000000     6.806000000     1.572000000
O    -5.784000000     7.492000000    -2.236000000
H    -5.164000000     7.309000000    -2.942000000
H    -5.595000000     6.827000000    -1.573000000
O    -5.517000000     5.210000000     4.440000000
H    -5.702000000     5.883000000     5.096000000
H    -4.635000000     4.904000000     4.653000000
O    -7.676000000     3.932000000    -0.776000000
H    -7.628000000     3.552000000     0.101000000
H    -8.326000000     4.630000000    -0.699000000
O    -5.045000000     2.880000000    -5.883000000
H    -4.598000000     2.710000000    -5.054000000
H    -5.961000000     3.008000000    -5.639000000
O    -3.257000000     5.124000000     1.425000000
H    -2.672000000     4.853000000     0.718000000
H    -3.958000000     4.472000000     1.419000000
O    -9.051000000    -1.067000000    -1.782000000
H    -8.682000000    -1.633000000    -1.104000000
H    -8.430000000    -0.342000000    -1.853000000
O    -8.368000000     4.520000000    -3.632000000
H    -8.011000000     5.301000000    -3.209000000
H    -7.976000000     3.789000000    -3.153000000
O    -9.782000000     1.513000000     1.838000000
H    -9.928000000     0.750000000     2.397000000
H   -10.370000000     1.382000000     1.095000000
O    -1.210000000     1.581000000    -3.264000000
H    -0.843000000     0.888000000    -2.715000000
H    -2.140000000     1.364000000    -3.335000000
