215
-1433.61065
C    -4.680000000    -1.335000000    -1.434000000
H    -4.587000000    -0.261000000    -1.575000000
C    -4.477000000    -1.867000000    -0.195000000
C    -4.380000000    -3.245000000    -0.141000000
H    -4.280000000    -3.729000000     0.827000000
C    -4.082000000    -1.071000000     1.003000000
O    -4.791000000     0.195000000     1.001000000
H    -3.006000000    -0.845000000     0.959000000
O    -4.272000000    -1.739000000     2.307000000
C    -3.184000000    -1.669000000     3.177000000
C    -2.270000000    -2.663000000     3.133000000
H    -2.482000000    -3.554000000     2.547000000
C    -1.052000000    -2.516000000     3.860000000
O    -0.028000000    -3.433000000     3.617000000
C    -0.776000000    -1.362000000     4.519000000
C     0.454000000    -1.227000000     5.427000000
H     0.273000000    -0.575000000     6.284000000
C     1.617000000    -0.660000000     4.614000000
C     1.765000000     0.690000000     4.634000000
H     1.130000000     1.289000000     5.282000000
H     0.866000000    -2.174000000     5.781000000
C    -1.726000000    -0.383000000     4.581000000
H    -1.372000000     0.552000000     5.007000000
C    -2.929000000    -0.520000000     3.920000000
C    -3.903000000     0.640000000     3.782000000
H    -3.887000000     1.288000000     4.661000000
H    -4.952000000     0.411000000     3.588000000
C    -3.640000000     1.505000000     2.647000000
C    -2.794000000     2.629000000     2.844000000
H    -2.484000000     2.899000000     3.850000000
C    -4.183000000     1.309000000     1.372000000
C    -4.012000000     2.280000000     0.410000000
H    -4.403000000     2.062000000    -0.581000000
C    -3.256000000     3.423000000     0.621000000
O    -2.818000000     4.176000000    -0.483000000
C    -1.522000000     3.893000000    -0.983000000
C    -1.310000000     3.809000000    -2.457000000
C    -0.090000000     4.064000000    -3.120000000
H     0.706000000     4.298000000    -2.418000000
C    -2.334000000     3.216000000    -3.228000000
H    -3.312000000     3.036000000    -2.788000000
O    -0.618000000     4.957000000    -0.474000000
H    -1.134000000     2.964000000    -0.539000000
C    -2.618000000     3.575000000     1.860000000
C    -1.815000000     4.834000000     2.211000000
H    -1.920000000     5.015000000     3.283000000
H    -2.090000000     5.720000000     1.635000000
C    -0.391000000     4.455000000     1.959000000
C     0.450000000     3.940000000     2.950000000
H     0.099000000     3.873000000     3.976000000
C     0.151000000     4.608000000     0.675000000
C     1.482000000     4.356000000     0.447000000
H     1.884000000     4.332000000    -0.563000000
C     2.249000000     3.698000000     1.375000000
O     3.456000000     3.159000000     1.014000000
C     3.711000000     1.713000000     0.889000000
C     4.534000000     1.500000000    -0.356000000
C     4.631000000     2.475000000    -1.359000000
H     4.186000000     3.463000000    -1.279000000
C     4.998000000     0.195000000    -0.666000000
H     4.762000000    -0.639000000    -0.010000000
O     4.303000000     1.263000000     2.113000000
H     2.687000000     1.386000000     0.656000000
C     1.741000000     3.526000000     2.673000000
C     2.592000000     2.930000000     3.787000000
H     2.233000000     3.306000000     4.748000000
H     3.617000000     3.253000000     3.594000000
C     2.673000000     1.373000000     3.828000000
C     3.382000000     0.673000000     2.887000000
C     3.256000000    -0.756000000     2.881000000
H     3.792000000    -1.253000000     2.077000000
C     2.339000000    -1.387000000     3.637000000
O     2.202000000    -2.692000000     3.425000000
C     1.038000000    -3.064000000     2.750000000
H     0.609000000    -2.217000000     2.195000000
C     1.357000000    -4.047000000     1.655000000
C     0.396000000    -4.914000000     1.229000000
H    -0.611000000    -4.789000000     1.620000000
C     2.689000000    -4.031000000     1.088000000
H     3.436000000    -3.297000000     1.379000000
C     3.026000000    -4.996000000     0.166000000
O     4.170000000    -5.031000000    -0.607000000
C     2.079000000    -5.897000000    -0.157000000
H     2.375000000    -6.661000000    -0.870000000
C     0.753000000    -5.855000000     0.305000000
O    -0.197000000    -6.779000000    -0.201000000
C    -1.477000000    -6.834000000     0.198000000
C    -2.363000000    -6.053000000    -0.558000000
H    -2.110000000    -5.408000000    -1.397000000
C    -2.019000000    -7.734000000     1.139000000
H    -1.339000000    -8.382000000     1.686000000
C    -3.400000000    -7.812000000     1.335000000
H    -3.753000000    -8.424000000     2.161000000
C    -4.190000000    -6.915000000     0.653000000
H    -5.272000000    -6.957000000     0.752000000
C    -3.687000000    -6.081000000    -0.280000000
O    -4.563000000    -5.454000000    -1.175000000
C    -4.680000000    -4.036000000    -1.278000000
C    -5.028000000    -3.448000000    -2.485000000
H    -5.392000000    -3.978000000    -3.361000000
C    -4.934000000    -2.102000000    -2.571000000
O    -5.327000000    -1.468000000    -3.729000000
C    -5.369000000    -0.106000000    -3.958000000
C    -4.233000000     0.503000000    -4.457000000
H    -3.382000000    -0.163000000    -4.573000000
C    -6.539000000     0.656000000    -3.730000000
H    -7.443000000     0.200000000    -3.332000000
C    -6.514000000     2.016000000    -4.025000000
H    -7.423000000     2.586000000    -3.852000000
C    -5.359000000     2.570000000    -4.680000000
H    -5.352000000     3.594000000    -5.042000000
C    -4.228000000     1.844000000    -4.818000000
O    -3.144000000     2.437000000    -5.389000000
C    -2.180000000     3.024000000    -4.608000000
C    -1.011000000     3.365000000    -5.226000000
H    -0.995000000     3.184000000    -6.298000000
C     0.072000000     3.942000000    -4.529000000
O     1.237000000     4.162000000    -5.203000000
C     2.383000000     4.572000000    -4.695000000
C     3.405000000     3.697000000    -4.348000000
H     3.477000000     2.631000000    -4.548000000
C     2.465000000     5.928000000    -4.317000000
H     1.668000000     6.644000000    -4.506000000
C     3.537000000     6.475000000    -3.664000000
H     3.569000000     7.535000000    -3.428000000
C     4.583000000     5.588000000    -3.452000000
H     5.524000000     6.046000000    -3.158000000
C     4.518000000     4.232000000    -3.828000000
O     5.599000000     3.372000000    -3.416000000
C     5.399000000     2.307000000    -2.477000000
C     6.012000000     1.108000000    -2.705000000
H     6.688000000     0.847000000    -3.515000000
C     5.814000000     0.001000000    -1.797000000
O     6.519000000    -1.194000000    -2.116000000
C     6.455000000    -2.359000000    -1.347000000
C     7.290000000    -2.391000000    -0.232000000
H     7.955000000    -1.539000000    -0.109000000
C     7.276000000    -3.519000000     0.638000000
H     8.014000000    -3.694000000     1.417000000
C     6.253000000    -4.404000000     0.515000000
H     6.117000000    -5.204000000     1.238000000
C     5.284000000    -4.219000000    -0.479000000
C     5.415000000    -3.203000000    -1.466000000
H     4.685000000    -2.998000000    -2.245000000
C     0.373000000    -2.009000000    -1.087000000
H     0.381000000    -3.073000000    -1.310000000
C    -0.443000000    -1.455000000    -0.103000000
H    -1.151000000    -1.924000000     0.576000000
C    -0.265000000    -0.082000000     0.224000000
H    -0.696000000     0.356000000     1.057000000
C     0.590000000     0.716000000    -0.509000000
H     0.761000000     1.755000000    -0.237000000
C     1.302000000     0.167000000    -1.589000000
H     2.015000000     0.740000000    -2.176000000
C     1.224000000    -1.209000000    -1.878000000
C     1.953000000    -1.838000000    -3.091000000
O     2.307000000    -1.066000000    -4.012000000
O     1.893000000    -3.039000000    -3.361000000
O    -1.300000000     0.399000000    -7.088000000
H    -1.455000000     1.019000000    -6.376000000
H    -0.504000000     0.717000000    -7.514000000
O     2.179000000    -2.372000000    -7.968000000
H     1.847000000    -1.762000000    -8.627000000
H     3.116000000    -2.438000000    -8.154000000
O     4.915000000    -1.466000000    -5.388000000
H     5.145000000    -2.376000000    -5.578000000
H     3.995000000    -1.501000000    -5.126000000
O     2.664000000     2.186000000    -7.462000000
H     2.900000000     3.041000000    -7.102000000
H     2.203000000     1.744000000    -6.749000000
O     0.246000000    -5.328000000    -3.578000000
H     0.783000000    -4.574000000    -3.333000000
H     0.070000000    -5.204000000    -4.510000000
O     5.133000000     0.638000000    -6.878000000
H     4.226000000     0.837000000    -7.110000000
H     5.066000000    -0.048000000    -6.215000000
O     1.578000000     0.929000000    -5.464000000
H     2.131000000     0.283000000    -5.025000000
H     0.926000000     1.173000000    -4.807000000
O     5.375000000    -6.044000000    -3.426000000
H     5.082000000    -6.458000000    -2.614000000
H     4.582000000    -5.654000000    -3.795000000
O     2.838000000    -7.431000000    -7.344000000
H     2.889000000    -7.504000000    -8.297000000
H     2.517000000    -6.542000000    -7.189000000
O    -4.058000000    -3.779000000    -5.951000000
H    -3.584000000    -3.306000000    -5.267000000
H    -3.690000000    -3.449000000    -6.770000000
O     1.583000000    -5.084000000    -7.256000000
H     0.771000000    -5.398000000    -7.654000000
H     1.675000000    -4.186000000    -7.575000000
O     5.923000000    -3.960000000    -6.122000000
H     6.703000000    -4.508000000    -6.035000000
H     5.345000000    -4.252000000    -5.418000000
O     0.388000000    -2.130000000    -5.628000000
H     1.154000000    -2.185000000    -5.056000000
H     0.627000000    -1.478000000    -6.286000000
O     4.908000000    -2.912000000    -8.713000000
H     4.862000000    -3.591000000    -9.387000000
H     5.392000000    -3.320000000    -7.995000000
O     3.455000000    -4.755000000    -4.775000000
H     3.083000000    -4.927000000    -5.640000000
H     2.827000000    -4.167000000    -4.356000000
O    -0.038000000    -8.099000000    -3.411000000
H    -0.251000000    -8.502000000    -2.569000000
H    -0.092000000    -7.157000000    -3.247000000
O    -2.024000000    -2.480000000    -4.337000000
H    -1.173000000    -2.408000000    -4.770000000
H    -1.819000000    -2.466000000    -3.402000000
O    -1.924000000    -3.261000000    -7.639000000
H    -1.325000000    -2.599000000    -7.294000000
H    -1.724000000    -3.302000000    -8.574000000
O     8.667000000    -0.930000000    -4.970000000
H     8.453000000    -0.083000000    -5.360000000
H     7.833000000    -1.254000000    -4.629000000
