215
-1460.23540
C     2.362000000     3.110000000    -3.598000000
H     2.672000000     2.274000000    -4.220000000
C     2.620000000     3.013000000    -2.241000000
C     2.093000000     3.961000000    -1.395000000
H     2.404000000     3.922000000    -0.354000000
C     3.276000000     1.777000000    -1.720000000
O     4.069000000     1.007000000    -2.731000000
H     2.496000000     1.198000000    -1.204000000
O     4.342000000     2.080000000    -0.780000000
C     4.257000000     1.332000000     0.413000000
C     3.698000000     1.878000000     1.544000000
H     3.309000000     2.893000000     1.568000000
C     3.650000000     1.153000000     2.735000000
O     2.779000000     1.672000000     3.716000000
C     4.094000000    -0.192000000     2.850000000
C     3.729000000    -0.949000000     4.119000000
H     4.403000000    -1.780000000     4.339000000
C     2.339000000    -1.571000000     3.927000000
C     2.305000000    -2.866000000     3.365000000
H     3.223000000    -3.338000000     3.022000000
H     3.736000000    -0.206000000     4.919000000
C     4.611000000    -0.754000000     1.672000000
H     4.878000000    -1.806000000     1.616000000
C     4.783000000    -0.023000000     0.538000000
C     5.519000000    -0.545000000    -0.701000000
H     6.095000000    -1.409000000    -0.363000000
H     6.160000000     0.233000000    -1.121000000
C     4.447000000    -1.128000000    -1.665000000
C     4.104000000    -2.445000000    -1.527000000
H     4.504000000    -3.016000000    -0.693000000
C     3.875000000    -0.343000000    -2.725000000
C     2.883000000    -0.877000000    -3.526000000
H     2.388000000    -0.179000000    -4.196000000
C     2.508000000    -2.229000000    -3.360000000
O     1.440000000    -2.819000000    -4.039000000
C     0.198000000    -2.698000000    -3.314000000
C    -0.876000000    -2.048000000    -4.047000000
C    -2.224000000    -2.213000000    -3.673000000
H    -2.471000000    -2.747000000    -2.759000000
C    -0.599000000    -1.237000000    -5.176000000
H     0.375000000    -1.321000000    -5.652000000
O    -0.099000000    -4.045000000    -2.819000000
H     0.421000000    -2.072000000    -2.437000000
C     3.149000000    -3.012000000    -2.357000000
C     2.705000000    -4.502000000    -2.014000000
H     3.521000000    -4.979000000    -1.468000000
H     2.571000000    -5.147000000    -2.885000000
C     1.561000000    -4.675000000    -1.086000000
C     1.827000000    -4.936000000     0.268000000
H     2.874000000    -5.076000000     0.526000000
C     0.257000000    -4.445000000    -1.504000000
C    -0.837000000    -4.610000000    -0.610000000
H    -1.830000000    -4.550000000    -1.049000000
C    -0.587000000    -4.743000000     0.740000000
O    -1.703000000    -4.743000000     1.618000000
C    -1.912000000    -3.484000000     2.228000000
C    -3.352000000    -3.058000000     2.206000000
C    -4.264000000    -3.329000000     1.170000000
H    -4.004000000    -3.819000000     0.235000000
C    -3.802000000    -2.209000000     3.215000000
H    -3.071000000    -1.758000000     3.882000000
O    -1.313000000    -3.531000000     3.531000000
H    -1.377000000    -2.677000000     1.705000000
C     0.751000000    -4.878000000     1.201000000
C     1.003000000    -4.941000000     2.668000000
H     1.913000000    -5.518000000     2.843000000
H     0.227000000    -5.567000000     3.114000000
C     1.098000000    -3.578000000     3.385000000
C    -0.121000000    -2.945000000     3.774000000
C    -0.142000000    -1.620000000     4.189000000
H    -1.065000000    -1.123000000     4.475000000
C     1.099000000    -0.992000000     4.323000000
O     1.118000000     0.300000000     4.671000000
C     1.354000000     1.294000000     3.630000000
H     1.118000000     0.830000000     2.661000000
C     0.527000000     2.560000000     3.836000000
C     1.033000000     3.820000000     3.586000000
H     2.044000000     3.901000000     3.193000000
C    -0.744000000     2.410000000     4.225000000
H    -1.185000000     1.417000000     4.263000000
C    -1.565000000     3.509000000     4.492000000
O    -2.881000000     3.396000000     4.844000000
C    -1.021000000     4.794000000     4.516000000
H    -1.720000000     5.610000000     4.679000000
C     0.291000000     4.936000000     4.049000000
O     0.747000000     6.143000000     3.797000000
C     1.268000000     6.550000000     2.593000000
C     0.775000000     6.030000000     1.402000000
H     0.079000000     5.200000000     1.491000000
C     2.153000000     7.572000000     2.562000000
H     2.423000000     8.044000000     3.503000000
C     2.671000000     8.051000000     1.275000000
H     3.451000000     8.805000000     1.339000000
C     2.208000000     7.404000000     0.122000000
H     2.532000000     7.773000000    -0.847000000
C     1.286000000     6.405000000     0.146000000
O     0.718000000     5.929000000    -1.045000000
C     1.351000000     5.035000000    -1.866000000
C     1.016000000     5.104000000    -3.185000000
H     0.318000000     5.818000000    -3.614000000
C     1.493000000     4.091000000    -4.112000000
O     1.364000000     4.171000000    -5.454000000
C     1.007000000     3.145000000    -6.329000000
C     0.073000000     2.118000000    -6.050000000
H    -0.234000000     1.948000000    -5.021000000
C     1.480000000     3.290000000    -7.603000000
H     2.064000000     4.177000000    -7.832000000
C     1.219000000     2.331000000    -8.597000000
H     1.636000000     2.473000000    -9.591000000
C     0.440000000     1.193000000    -8.265000000
H     0.295000000     0.456000000    -9.051000000
C    -0.245000000     1.148000000    -7.061000000
O    -1.314000000     0.239000000    -6.930000000
C    -1.569000000    -0.524000000    -5.810000000
C    -2.827000000    -0.509000000    -5.325000000
H    -3.491000000     0.205000000    -5.806000000
C    -3.223000000    -1.382000000    -4.241000000
O    -4.536000000    -1.276000000    -3.752000000
C    -5.108000000    -2.264000000    -3.002000000
C    -5.534000000    -2.064000000    -1.714000000
H    -5.310000000    -1.133000000    -1.199000000
C    -5.360000000    -3.506000000    -3.580000000
H    -5.027000000    -3.770000000    -4.581000000
C    -6.080000000    -4.533000000    -2.976000000
H    -6.126000000    -5.501000000    -3.468000000
C    -6.587000000    -4.333000000    -1.648000000
H    -7.150000000    -5.179000000    -1.262000000
C    -6.218000000    -3.130000000    -1.038000000
O    -6.516000000    -2.949000000     0.278000000
C    -5.556000000    -2.894000000     1.284000000
C    -5.992000000    -2.231000000     2.433000000
H    -7.031000000    -1.948000000     2.579000000
C    -5.117000000    -1.786000000     3.413000000
O    -5.451000000    -0.697000000     4.287000000
C    -4.559000000     0.067000000     4.961000000
C    -4.216000000    -0.366000000     6.241000000
H    -4.696000000    -1.238000000     6.680000000
C    -3.374000000     0.411000000     7.061000000
H    -3.062000000     0.093000000     8.052000000
C    -2.900000000     1.605000000     6.600000000
H    -2.181000000     2.188000000     7.170000000
C    -3.323000000     2.135000000     5.378000000
C    -4.104000000     1.309000000     4.506000000
H    -4.351000000     1.612000000     3.492000000
C    -2.904000000     0.230000000     0.500000000
H    -3.922000000    -0.025000000     0.783000000
C    -1.979000000    -0.712000000     0.083000000
H    -2.098000000    -1.791000000     0.020000000
C    -0.724000000    -0.295000000    -0.321000000
H    -0.023000000    -1.097000000    -0.559000000
C    -0.276000000     0.989000000    -0.149000000
H     0.722000000     1.298000000    -0.450000000
C    -1.227000000     1.914000000     0.328000000
H    -0.806000000     2.909000000     0.448000000
C    -2.576000000     1.590000000     0.549000000
C    -3.472000000     2.657000000     1.066000000
O    -3.159000000     3.847000000     1.016000000
O    -4.672000000     2.486000000     1.265000000
O    -2.344000000     3.586000000    -4.996000000
H    -2.026000000     4.475000000    -4.842000000
H    -2.076000000     3.098000000    -4.217000000
O    -7.005000000     2.988000000     2.564000000
H    -6.274000000     3.001000000     1.947000000
H    -6.975000000     2.114000000     2.953000000
O    -4.260000000     5.018000000     3.101000000
H    -4.260000000     4.439000000     2.338000000
H    -3.782000000     4.531000000     3.771000000
O    -5.159000000     6.053000000    -3.399000000
H    -5.377000000     5.318000000    -3.973000000
H    -4.500000000     5.702000000    -2.800000000
O    -3.187000000     4.860000000    -1.797000000
H    -3.540000000     5.154000000    -0.958000000
H    -3.012000000     3.928000000    -1.669000000
O    -4.213000000     1.563000000    -2.516000000
H    -5.009000000     1.505000000    -1.987000000
H    -4.256000000     0.802000000    -3.096000000
O    -8.923000000     5.606000000     2.174000000
H    -9.737000000     5.263000000     1.805000000
H    -8.438000000     4.828000000     2.449000000
O    -6.277000000     0.810000000    -0.428000000
H    -6.920000000     0.380000000     0.137000000
H    -5.781000000     1.378000000     0.162000000
O    -6.358000000     4.222000000     0.066000000
H    -6.206000000     5.070000000     0.483000000
H    -5.531000000     3.751000000     0.175000000
O    -8.248000000    -0.129000000     1.025000000
H    -8.473000000    -1.041000000     0.841000000
H    -8.698000000     0.068000000     1.847000000
O    -3.083000000     7.385000000     3.440000000
H    -2.402000000     7.306000000     2.772000000
H    -3.706000000     6.690000000     3.230000000
O    -1.380000000     7.358000000    -1.803000000
H    -0.531000000     7.050000000    -1.487000000
H    -1.629000000     6.725000000    -2.476000000
O    -2.380000000     6.363000000     0.987000000
H    -2.429000000     5.421000000     1.152000000
H    -1.793000000     6.444000000     0.236000000
O    -6.270000000     7.358000000     3.407000000
H    -5.954000000     6.780000000     4.102000000
H    -7.204000000     7.461000000     3.588000000
O    -8.458000000     2.916000000    -1.452000000
H    -7.824000000     3.363000000    -0.892000000
H    -8.289000000     3.262000000    -2.329000000
O    -5.008000000     3.586000000    -4.477000000
H    -4.209000000     3.512000000    -4.997000000
H    -4.928000000     2.899000000    -3.816000000
O    -5.196000000     6.592000000     1.058000000
H    -4.274000000     6.344000000     1.119000000
H    -5.454000000     6.782000000     1.960000000
O    -7.108000000     4.005000000     5.091000000
H    -6.797000000     3.949000000     4.188000000
H    -8.021000000     4.283000000     5.014000000
O    -1.493000000     2.242000000    -2.801000000
H    -0.977000000     1.990000000    -2.035000000
H    -2.347000000     1.833000000    -2.659000000
