215
-1468.19435
C    -4.689000000    -0.649000000    -2.494000000
H    -4.799000000     0.409000000    -2.719000000
C    -4.530000000    -1.122000000    -1.181000000
C    -4.320000000    -2.506000000    -1.005000000
H    -4.052000000    -2.901000000    -0.029000000
C    -4.292000000    -0.090000000    -0.061000000
O    -4.817000000     1.160000000    -0.323000000
H    -3.217000000     0.127000000    -0.153000000
O    -4.755000000    -0.663000000     1.172000000
C    -3.980000000    -0.545000000     2.300000000
C    -3.147000000    -1.600000000     2.631000000
H    -3.311000000    -2.545000000     2.119000000
C    -2.259000000    -1.443000000     3.725000000
O    -1.500000000    -2.586000000     4.005000000
C    -2.063000000    -0.183000000     4.311000000
C    -1.043000000     0.042000000     5.418000000
H    -1.410000000     0.711000000     6.199000000
C     0.352000000     0.305000000     4.780000000
C     0.798000000     1.595000000     4.500000000
H     0.169000000     2.438000000     4.774000000
H    -0.950000000    -0.854000000     6.036000000
C    -2.946000000     0.886000000     3.994000000
H    -2.726000000     1.879000000     4.379000000
C    -3.859000000     0.724000000     2.907000000
C    -4.723000000     1.917000000     2.360000000
H    -4.927000000     2.616000000     3.174000000
H    -5.695000000     1.591000000     1.984000000
C    -3.936000000     2.697000000     1.259000000
C    -2.916000000     3.618000000     1.588000000
H    -2.584000000     3.654000000     2.622000000
C    -4.117000000     2.290000000    -0.072000000
C    -3.355000000     2.850000000    -1.069000000
H    -3.478000000     2.373000000    -2.037000000
C    -2.412000000     3.847000000    -0.828000000
O    -1.648000000     4.364000000    -1.779000000
C    -0.289000000     3.766000000    -1.941000000
C     0.041000000     3.361000000    -3.397000000
C     1.329000000     3.380000000    -3.848000000
H     2.085000000     3.722000000    -3.147000000
C    -0.971000000     2.891000000    -4.255000000
H    -2.020000000     2.946000000    -3.974000000
O     0.707000000     4.685000000    -1.358000000
H    -0.304000000     2.804000000    -1.408000000
C    -2.178000000     4.239000000     0.554000000
C    -1.072000000     5.269000000     0.809000000
H    -1.314000000     5.970000000     1.611000000
H    -1.180000000     5.990000000    -0.003000000
C     0.349000000     4.747000000     0.993000000
C     0.838000000     4.441000000     2.328000000
H     0.244000000     4.711000000     3.197000000
C     1.191000000     4.532000000    -0.080000000
C     2.457000000     3.921000000     0.012000000
H     3.092000000     3.788000000    -0.861000000
C     2.864000000     3.583000000     1.309000000
O     3.970000000     2.817000000     1.405000000
C     3.803000000     1.438000000     1.569000000
C     4.624000000     0.618000000     0.582000000
C     5.168000000     1.225000000    -0.542000000
H     4.883000000     2.245000000    -0.791000000
C     4.676000000    -0.741000000     0.770000000
H     4.187000000    -1.191000000     1.630000000
O     4.054000000     1.079000000     2.954000000
H     2.809000000     1.082000000     1.263000000
C     2.065000000     3.802000000     2.483000000
C     2.490000000     3.333000000     3.798000000
H     2.039000000     3.807000000     4.672000000
H     3.567000000     3.323000000     3.973000000
C     2.026000000     1.895000000     3.955000000
C     2.882000000     0.852000000     3.616000000
C     2.425000000    -0.502000000     3.870000000
H     3.025000000    -1.392000000     3.704000000
C     1.143000000    -0.738000000     4.341000000
O     0.754000000    -2.015000000     4.552000000
C    -0.138000000    -2.563000000     3.559000000
H    -0.145000000    -1.820000000     2.748000000
C     0.230000000    -3.925000000     3.001000000
C    -0.684000000    -4.724000000     2.292000000
H    -1.698000000    -4.382000000     2.104000000
C     1.535000000    -4.354000000     3.187000000
H     2.275000000    -3.834000000     3.789000000
C     1.878000000    -5.687000000     2.851000000
O     3.212000000    -6.124000000     2.944000000
C     0.937000000    -6.518000000     2.298000000
H     1.216000000    -7.525000000     1.998000000
C    -0.305000000    -5.999000000     1.950000000
O    -1.059000000    -6.729000000     1.054000000
C    -2.406000000    -6.488000000     0.699000000
C    -2.644000000    -5.685000000    -0.447000000
H    -1.845000000    -5.183000000    -0.987000000
C    -3.415000000    -7.044000000     1.418000000
H    -3.212000000    -7.738000000     2.229000000
C    -4.754000000    -6.723000000     1.056000000
H    -5.576000000    -7.023000000     1.701000000
C    -4.979000000    -5.912000000    -0.031000000
H    -5.961000000    -5.738000000    -0.462000000
C    -3.946000000    -5.396000000    -0.821000000
O    -4.270000000    -4.729000000    -1.980000000
C    -4.429000000    -3.345000000    -2.104000000
C    -4.607000000    -2.840000000    -3.417000000
H    -4.595000000    -3.481000000    -4.295000000
C    -4.749000000    -1.481000000    -3.595000000
O    -4.806000000    -0.977000000    -4.917000000
C    -4.552000000     0.363000000    -5.276000000
C    -3.284000000     0.718000000    -5.671000000
H    -2.558000000    -0.091000000    -5.674000000
C    -5.564000000     1.320000000    -5.481000000
H    -6.581000000     0.988000000    -5.288000000
C    -5.206000000     2.629000000    -6.003000000
H    -5.998000000     3.322000000    -6.276000000
C    -3.906000000     2.906000000    -6.432000000
H    -3.768000000     3.901000000    -6.849000000
C    -2.941000000     1.986000000    -6.196000000
O    -1.657000000     2.250000000    -6.528000000
C    -0.670000000     2.505000000    -5.568000000
C     0.660000000     2.373000000    -5.888000000
H     0.891000000     2.086000000    -6.911000000
C     1.706000000     2.956000000    -5.065000000
O     2.984000000     2.914000000    -5.492000000
C     4.102000000     3.019000000    -4.676000000
C     4.689000000     1.926000000    -4.116000000
H     4.272000000     0.938000000    -4.290000000
C     4.584000000     4.281000000    -4.386000000
H     4.127000000     5.193000000    -4.763000000
C     5.689000000     4.468000000    -3.543000000
H     6.010000000     5.472000000    -3.279000000
C     6.296000000     3.400000000    -2.873000000
H     7.141000000     3.521000000    -2.200000000
C     5.860000000     2.085000000    -3.244000000
O     6.373000000     0.975000000    -2.628000000
C     5.742000000     0.419000000    -1.511000000
C     5.830000000    -0.955000000    -1.317000000
H     6.384000000    -1.524000000    -2.060000000
C     5.243000000    -1.512000000    -0.199000000
O     5.159000000    -2.908000000    -0.141000000
C     5.072000000    -3.566000000     1.122000000
C     6.081000000    -3.318000000     2.121000000
H     6.784000000    -2.495000000     2.013000000
C     6.146000000    -4.068000000     3.264000000
H     6.735000000    -3.832000000     4.147000000
C     5.124000000    -5.001000000     3.527000000
H     5.019000000    -5.463000000     4.505000000
C     4.151000000    -5.231000000     2.539000000
C     4.100000000    -4.552000000     1.320000000
H     3.287000000    -4.568000000     0.598000000
C     0.552000000    -2.125000000    -0.634000000
H     0.502000000    -3.208000000    -0.721000000
C    -0.450000000    -1.565000000     0.099000000
H    -1.221000000    -2.181000000     0.556000000
C    -0.484000000    -0.207000000     0.404000000
H    -1.248000000     0.185000000     1.151000000
C     0.511000000     0.603000000    -0.145000000
H     0.510000000     1.671000000     0.054000000
C     1.542000000     0.067000000    -0.914000000
H     2.314000000     0.710000000    -1.329000000
C     1.579000000    -1.322000000    -1.171000000
C     2.484000000    -1.998000000    -2.204000000
O     3.248000000    -1.392000000    -2.949000000
O     2.401000000    -3.153000000    -2.393000000
O     4.002000000    -3.326000000    -6.620000000
H     4.625000000    -3.944000000    -6.237000000
H     3.145000000    -3.642000000    -6.336000000
O     0.072000000    -7.860000000    -2.009000000
H     0.478000000    -7.098000000    -1.595000000
H    -0.196000000    -7.549000000    -2.874000000
O     2.971000000    -7.681000000     0.282000000
H     3.246000000    -8.429000000    -0.248000000
H     3.751000000    -7.130000000     0.342000000
O     1.403000000    -5.543000000    -1.484000000
H     1.709000000    -4.637000000    -1.540000000
H     1.908000000    -5.922000000    -0.764000000
O     1.538000000    -0.347000000    -4.555000000
H     2.085000000     0.159000000    -5.156000000
H     2.161000000    -0.773000000    -3.966000000
O     7.748000000    -0.597000000    -5.016000000
H     6.944000000    -1.114000000    -4.954000000
H     7.608000000     0.136000000    -4.417000000
O     4.554000000    -4.676000000    -3.247000000
H     5.375000000    -4.339000000    -2.889000000
H     3.900000000    -4.019000000    -3.007000000
O     3.201000000    -2.318000000    -8.921000000
H     3.289000000    -1.369000000    -8.833000000
H     3.364000000    -2.656000000    -8.040000000
O    -0.322000000    -3.206000000    -5.017000000
H     0.624000000    -3.348000000    -5.041000000
H    -0.429000000    -2.378000000    -4.550000000
O    -1.151000000    -4.667000000    -7.164000000
H    -0.368000000    -4.764000000    -7.706000000
H    -0.834000000    -4.268000000    -6.354000000
O     5.118000000    -6.790000000    -1.245000000
H     4.665000000    -6.743000000    -2.087000000
H     5.923000000    -6.290000000    -1.377000000
O     2.192000000    -4.457000000    -4.862000000
H     2.442000000    -5.288000000    -4.458000000
H     2.188000000    -3.830000000    -4.138000000
O     7.872000000    -4.775000000    -4.854000000
H     6.960000000    -4.846000000    -5.136000000
H     7.949000000    -5.400000000    -4.133000000
O     5.358000000    -1.850000000    -4.681000000
H     4.747000000    -1.677000000    -3.965000000
H     4.831000000    -2.298000000    -5.343000000
O    -0.875000000    -0.451000000    -3.399000000
H    -0.068000000    -0.203000000    -3.850000000
H    -0.617000000    -0.547000000    -2.482000000
O    -1.022000000    -5.137000000    -3.291000000
H    -1.005000000    -4.355000000    -3.842000000
H    -0.204000000    -5.098000000    -2.794000000
O     5.418000000    -5.500000000    -5.756000000
H     5.056000000    -5.461000000    -4.871000000
H     5.530000000    -6.434000000    -5.928000000
O     8.252000000    -2.982000000    -0.017000000
H     7.782000000    -2.212000000     0.302000000
H     8.994000000    -2.625000000    -0.505000000
O     7.170000000    -4.635000000    -1.922000000
H     8.049000000    -4.956000000    -1.718000000
H     6.954000000    -4.052000000    -1.194000000
