215
-1455.92815
C    -4.725000000    -0.973000000    -2.148000000
H    -4.656000000     0.101000000    -2.297000000
C    -4.700000000    -1.406000000    -0.868000000
C    -4.612000000    -2.787000000    -0.658000000
H    -4.652000000    -3.168000000     0.359000000
C    -4.457000000    -0.440000000     0.277000000
O    -5.151000000     0.879000000     0.064000000
H    -3.370000000    -0.300000000     0.178000000
O    -4.676000000    -1.082000000     1.561000000
C    -3.756000000    -0.880000000     2.536000000
C    -3.002000000    -1.967000000     2.940000000
H    -3.060000000    -2.959000000     2.501000000
C    -1.959000000    -1.727000000     3.813000000
O    -1.053000000    -2.711000000     4.022000000
C    -1.819000000    -0.522000000     4.481000000
C    -0.692000000    -0.356000000     5.500000000
H    -1.072000000     0.355000000     6.236000000
C     0.628000000     0.105000000     4.792000000
C     0.863000000     1.462000000     4.646000000
H     0.240000000     2.253000000     5.056000000
H    -0.514000000    -1.319000000     5.983000000
C    -2.636000000     0.549000000     4.078000000
H    -2.519000000     1.445000000     4.683000000
C    -3.598000000     0.366000000     3.112000000
C    -4.443000000     1.570000000     2.839000000
H    -4.482000000     2.313000000     3.639000000
H    -5.453000000     1.171000000     2.725000000
C    -3.947000000     2.315000000     1.611000000
C    -3.025000000     3.335000000     1.856000000
H    -2.752000000     3.606000000     2.873000000
C    -4.216000000     1.889000000     0.294000000
C    -3.663000000     2.625000000    -0.739000000
H    -3.960000000     2.412000000    -1.763000000
C    -2.790000000     3.642000000    -0.497000000
O    -2.169000000     4.169000000    -1.608000000
C    -0.746000000     3.824000000    -1.757000000
C    -0.518000000     3.511000000    -3.276000000
C     0.796000000     3.528000000    -3.774000000
H     1.633000000     3.830000000    -3.149000000
C    -1.585000000     3.127000000    -4.136000000
H    -2.593000000     3.164000000    -3.732000000
O     0.026000000     4.855000000    -1.161000000
H    -0.481000000     2.872000000    -1.275000000
C    -2.456000000     4.063000000     0.838000000
C    -1.541000000     5.127000000     1.227000000
H    -1.758000000     5.647000000     2.162000000
H    -1.648000000     5.935000000     0.500000000
C    -0.109000000     4.698000000     1.239000000
C     0.508000000     4.208000000     2.427000000
H    -0.073000000     4.280000000     3.343000000
C     0.570000000     4.526000000     0.006000000
C     1.900000000     4.126000000     0.082000000
H     2.416000000     4.082000000    -0.874000000
C     2.509000000     3.710000000     1.214000000
O     3.682000000     3.067000000     1.091000000
C     3.670000000     1.651000000     1.250000000
C     4.759000000     1.035000000     0.386000000
C     5.161000000     1.749000000    -0.729000000
H     5.040000000     2.825000000    -0.830000000
C     5.134000000    -0.260000000     0.543000000
H     4.787000000    -0.822000000     1.407000000
O     3.935000000     1.217000000     2.690000000
H     2.681000000     1.227000000     1.021000000
C     1.797000000     3.780000000     2.440000000
C     2.316000000     3.299000000     3.770000000
H     1.878000000     3.837000000     4.613000000
H     3.385000000     3.512000000     3.830000000
C     2.055000000     1.814000000     3.968000000
C     2.927000000     0.810000000     3.481000000
C     2.592000000    -0.504000000     3.536000000
H     3.201000000    -1.265000000     3.056000000
C     1.471000000    -0.880000000     4.236000000
O     1.193000000    -2.249000000     4.286000000
C     0.254000000    -2.659000000     3.334000000
H     0.210000000    -1.828000000     2.615000000
C     0.720000000    -3.902000000     2.602000000
C    -0.167000000    -4.677000000     1.885000000
H    -1.198000000    -4.341000000     1.810000000
C     2.091000000    -4.194000000     2.563000000
H     2.838000000    -3.738000000     3.207000000
C     2.492000000    -5.352000000     1.918000000
O     3.888000000    -5.711000000     1.977000000
C     1.590000000    -6.148000000     1.227000000
H     1.900000000    -7.042000000     0.693000000
C     0.222000000    -5.773000000     1.143000000
O    -0.583000000    -6.330000000     0.227000000
C    -1.969000000    -6.388000000     0.334000000
C    -2.685000000    -5.727000000    -0.662000000
H    -2.258000000    -5.170000000    -1.492000000
C    -2.591000000    -7.352000000     1.160000000
H    -2.081000000    -8.110000000     1.748000000
C    -3.951000000    -7.313000000     1.336000000
H    -4.441000000    -7.918000000     2.095000000
C    -4.674000000    -6.475000000     0.547000000
H    -5.738000000    -6.366000000     0.738000000
C    -4.056000000    -5.759000000    -0.513000000
O    -4.846000000    -5.079000000    -1.394000000
C    -4.663000000    -3.702000000    -1.666000000
C    -4.764000000    -3.258000000    -2.967000000
H    -4.737000000    -3.942000000    -3.812000000
C    -4.794000000    -1.888000000    -3.260000000
O    -4.702000000    -1.521000000    -4.608000000
C    -4.654000000    -0.227000000    -4.991000000
C    -3.504000000     0.403000000    -5.422000000
H    -2.585000000    -0.175000000    -5.476000000
C    -5.829000000     0.549000000    -4.947000000
H    -6.797000000     0.158000000    -4.643000000
C    -5.822000000     1.875000000    -5.307000000
H    -6.742000000     2.452000000    -5.254000000
C    -4.634000000     2.483000000    -5.722000000
H    -4.687000000     3.528000000    -6.017000000
C    -3.488000000     1.747000000    -5.839000000
O    -2.304000000     2.230000000    -6.244000000
C    -1.315000000     2.773000000    -5.421000000
C    -0.020000000     2.940000000    -5.958000000
H     0.110000000     2.644000000    -6.996000000
C     1.033000000     3.236000000    -5.132000000
O     2.306000000     3.142000000    -5.705000000
C     3.477000000     3.415000000    -4.914000000
C     4.243000000     2.477000000    -4.287000000
H     4.064000000     1.406000000    -4.345000000
C     3.871000000     4.751000000    -4.764000000
H     3.262000000     5.539000000    -5.199000000
C     5.053000000     5.108000000    -4.110000000
H     5.342000000     6.145000000    -3.961000000
C     5.787000000     4.161000000    -3.410000000
H     6.711000000     4.465000000    -2.926000000
C     5.387000000     2.814000000    -3.526000000
O     6.186000000     1.817000000    -2.933000000
C     5.755000000     1.107000000    -1.817000000
C     6.225000000    -0.216000000    -1.576000000
H     6.844000000    -0.642000000    -2.361000000
C     5.845000000    -0.929000000    -0.451000000
O     6.299000000    -2.223000000    -0.263000000
C     6.128000000    -3.025000000     0.821000000
C     6.936000000    -2.865000000     1.978000000
H     7.768000000    -2.169000000     1.912000000
C     6.728000000    -3.703000000     3.078000000
H     7.377000000    -3.595000000     3.944000000
C     5.756000000    -4.676000000     2.952000000
H     5.607000000    -5.414000000     3.736000000
C     4.860000000    -4.727000000     1.927000000
C     5.033000000    -3.872000000     0.819000000
H     4.452000000    -4.190000000    -0.042000000
C     1.353000000    -2.021000000    -0.893000000
H     1.474000000    -2.992000000    -0.421000000
C     0.332000000    -1.192000000    -0.445000000
H    -0.403000000    -1.490000000     0.298000000
C     0.182000000     0.124000000    -0.926000000
H    -0.633000000     0.751000000    -0.528000000
C     1.212000000     0.639000000    -1.795000000
H     1.140000000     1.646000000    -2.198000000
C     2.196000000    -0.258000000    -2.343000000
H     2.821000000     0.006000000    -3.192000000
C     2.272000000    -1.604000000    -1.882000000
C     3.034000000    -2.630000000    -2.566000000
O     3.213000000    -2.366000000    -3.751000000
O     3.286000000    -3.668000000    -2.084000000
O     2.047000000    -6.143000000    -2.857000000
H     1.538000000    -5.398000000    -3.176000000
H     2.292000000    -5.901000000    -1.964000000
O     1.270000000    -8.112000000    -4.793000000
H     0.584000000    -8.416000000    -4.199000000
H     1.745000000    -7.450000000    -4.291000000
O     5.668000000    -4.821000000    -2.317000000
H     4.927000000    -4.222000000    -2.220000000
H     5.416000000    -5.597000000    -1.818000000
O    -0.504000000    -3.031000000    -7.111000000
H    -0.449000000    -3.795000000    -7.686000000
H     0.158000000    -3.189000000    -6.439000000
O     6.035000000    -6.939000000    -0.254000000
H     6.894000000    -7.353000000    -0.165000000
H     5.990000000    -6.321000000     0.475000000
O     5.765000000    -0.507000000    -7.523000000
H     5.429000000    -0.503000000    -6.626000000
H     5.626000000    -1.404000000    -7.826000000
O     5.262000000    -3.842000000    -4.836000000
H     4.473000000    -3.355000000    -4.596000000
H     5.785000000    -3.861000000    -4.035000000
O    -2.713000000    -3.357000000    -5.671000000
H    -3.277000000    -2.620000000    -5.433000000
H    -1.902000000    -2.949000000    -5.973000000
O     4.442000000    -6.720000000    -4.055000000
H     4.821000000    -5.844000000    -4.132000000
H     3.673000000    -6.601000000    -3.498000000
O     1.596000000    -3.897000000    -5.423000000
H     1.016000000    -4.338000000    -4.802000000
H     2.032000000    -3.221000000    -4.904000000
O     3.614000000    -1.661000000    -6.508000000
H     3.306000000    -1.675000000    -5.602000000
H     3.606000000    -2.580000000    -6.777000000
O     8.405000000    -2.757000000    -5.304000000
H     8.971000000    -2.020000000    -5.532000000
H     7.743000000    -2.773000000    -5.996000000
O     5.905000000    -9.006000000    -3.802000000
H     5.388000000    -8.202000000    -3.841000000
H     5.765000000    -9.339000000    -2.916000000
O     8.182000000    -5.343000000    -1.402000000
H     8.734000000    -4.716000000    -1.869000000
H     7.290000000    -5.120000000    -1.667000000
O     3.110000000     0.113000000    -8.767000000
H     3.434000000    -0.330000000    -7.982000000
H     2.648000000    -0.569000000    -9.254000000
O    -0.623000000    -4.738000000    -3.763000000
H    -1.048000000    -5.595000000    -3.739000000
H    -1.325000000    -4.129000000    -3.993000000
O     6.303000000    -5.393000000    -6.994000000
H     6.123000000    -4.739000000    -7.669000000
H     6.276000000    -4.903000000    -6.172000000
O     3.385000000    -4.880000000    -7.412000000
H     4.147000000    -5.336000000    -7.054000000
H     2.755000000    -4.864000000    -6.692000000
O     9.293000000    -3.000000000    -2.561000000
H     9.368000000    -2.098000000    -2.250000000
H     8.933000000    -2.920000000    -3.444000000
