215
-1433.55497
C    -3.544000000    -1.542000000    -3.782000000
H    -3.878000000    -0.521000000    -3.953000000
C    -3.609000000    -2.025000000    -2.478000000
C    -3.422000000    -3.422000000    -2.299000000
H    -3.451000000    -3.887000000    -1.316000000
C    -3.929000000    -1.163000000    -1.300000000
O    -4.642000000    -0.006000000    -1.726000000
H    -2.952000000    -0.871000000    -0.887000000
O    -4.660000000    -1.793000000    -0.202000000
C    -4.308000000    -1.602000000     1.105000000
C    -3.370000000    -2.472000000     1.694000000
H    -3.053000000    -3.383000000     1.194000000
C    -2.884000000    -2.142000000     2.977000000
O    -1.956000000    -2.899000000     3.612000000
C    -3.197000000    -0.888000000     3.602000000
C    -2.475000000    -0.490000000     4.846000000
H    -3.042000000     0.250000000     5.415000000
C    -1.099000000     0.125000000     4.554000000
C    -1.015000000     1.521000000     4.319000000
H    -1.920000000     2.122000000     4.349000000
H    -2.417000000    -1.319000000     5.554000000
C    -3.999000000    -0.026000000     2.903000000
H    -4.200000000     0.968000000     3.295000000
C    -4.576000000    -0.342000000     1.651000000
C    -5.436000000     0.726000000     0.994000000
H    -6.005000000     1.293000000     1.734000000
H    -6.247000000     0.249000000     0.440000000
C    -4.636000000     1.637000000     0.050000000
C    -4.066000000     2.838000000     0.473000000
H    -4.294000000     3.117000000     1.499000000
C    -4.255000000     1.226000000    -1.286000000
C    -3.393000000     1.928000000    -2.132000000
H    -3.177000000     1.606000000    -3.148000000
C    -2.800000000     3.095000000    -1.654000000
O    -1.952000000     3.843000000    -2.468000000
C    -0.535000000     3.694000000    -2.190000000
C     0.219000000     3.500000000    -3.466000000
C     1.648000000     3.592000000    -3.307000000
H     2.049000000     3.847000000    -2.329000000
C    -0.326000000     3.062000000    -4.593000000
H    -1.389000000     2.836000000    -4.607000000
O    -0.031000000     4.803000000    -1.438000000
H    -0.455000000     2.782000000    -1.580000000
C    -3.149000000     3.570000000    -0.385000000
C    -2.466000000     4.830000000     0.224000000
H    -3.092000000     5.100000000     1.077000000
H    -2.436000000     5.661000000    -0.483000000
C    -1.058000000     4.642000000     0.782000000
C    -0.965000000     4.390000000     2.139000000
H    -1.805000000     4.260000000     2.816000000
C     0.096000000     4.661000000    -0.035000000
C     1.325000000     4.543000000     0.523000000
H     2.189000000     4.462000000    -0.131000000
C     1.441000000     4.130000000     1.811000000
O     2.642000000     3.612000000     2.282000000
C     2.770000000     2.188000000     2.429000000
C     4.089000000     1.563000000     1.971000000
C     4.727000000     2.162000000     0.890000000
H     4.301000000     3.107000000     0.563000000
C     4.557000000     0.347000000     2.388000000
H     3.877000000    -0.180000000     3.052000000
O     2.543000000     1.901000000     3.857000000
H     1.979000000     1.654000000     1.882000000
C     0.337000000     4.037000000     2.581000000
C     0.350000000     3.643000000     4.043000000
H    -0.415000000     4.208000000     4.580000000
H     1.333000000     3.961000000     4.396000000
C     0.211000000     2.132000000     4.149000000
C     1.364000000     1.290000000     4.195000000
C     1.308000000    -0.055000000     4.391000000
H     2.196000000    -0.665000000     4.253000000
C     0.058000000    -0.585000000     4.744000000
O     0.048000000    -1.992000000     4.649000000
C    -0.518000000    -2.593000000     3.454000000
H    -0.446000000    -1.847000000     2.649000000
C     0.248000000    -3.860000000     3.085000000
C    -0.212000000    -4.604000000     2.007000000
H    -1.250000000    -4.464000000     1.715000000
C     1.532000000    -4.045000000     3.532000000
H     1.984000000    -3.356000000     4.241000000
C     2.225000000    -5.162000000     3.116000000
O     3.526000000    -5.337000000     3.523000000
C     1.717000000    -5.975000000     2.143000000
H     2.324000000    -6.838000000     1.881000000
C     0.520000000    -5.646000000     1.464000000
O     0.017000000    -6.390000000     0.402000000
C    -1.297000000    -6.491000000    -0.035000000
C    -1.532000000    -5.930000000    -1.243000000
H    -0.790000000    -5.282000000    -1.702000000
C    -2.241000000    -7.295000000     0.598000000
H    -1.979000000    -7.808000000     1.519000000
C    -3.529000000    -7.305000000     0.112000000
H    -4.340000000    -7.807000000     0.634000000
C    -3.809000000    -6.753000000    -1.161000000
H    -4.810000000    -6.778000000    -1.586000000
C    -2.722000000    -6.136000000    -1.867000000
O    -3.044000000    -5.581000000    -3.118000000
C    -3.226000000    -4.246000000    -3.385000000
C    -2.972000000    -3.727000000    -4.646000000
H    -2.709000000    -4.470000000    -5.394000000
C    -3.092000000    -2.338000000    -4.825000000
O    -2.807000000    -1.765000000    -6.024000000
C    -2.629000000    -0.441000000    -6.273000000
C    -1.376000000     0.164000000    -6.363000000
H    -0.571000000    -0.495000000    -6.048000000
C    -3.700000000     0.242000000    -6.796000000
H    -4.686000000    -0.194000000    -6.658000000
C    -3.575000000     1.552000000    -7.200000000
H    -4.526000000     2.001000000    -7.476000000
C    -2.375000000     2.213000000    -7.243000000
H    -2.328000000     3.274000000    -7.472000000
C    -1.261000000     1.474000000    -6.824000000
O     0.037000000     2.055000000    -6.783000000
C     0.514000000     2.652000000    -5.630000000
C     1.866000000     2.936000000    -5.580000000
H     2.537000000     2.696000000    -6.401000000
C     2.412000000     3.376000000    -4.385000000
O     3.790000000     3.617000000    -4.379000000
C     4.609000000     3.952000000    -3.272000000
C     5.224000000     2.962000000    -2.590000000
H     5.091000000     1.938000000    -2.930000000
C     4.894000000     5.320000000    -2.953000000
H     4.508000000     6.155000000    -3.532000000
C     5.680000000     5.625000000    -1.836000000
H     5.831000000     6.680000000    -1.623000000
C     6.249000000     4.584000000    -1.100000000
H     6.891000000     4.704000000    -0.231000000
C     5.885000000     3.244000000    -1.402000000
O     6.487000000     2.241000000    -0.751000000
C     5.884000000     1.601000000     0.317000000
C     6.306000000     0.388000000     0.755000000
H     7.091000000    -0.181000000     0.263000000
C     5.668000000    -0.288000000     1.755000000
O     5.952000000    -1.595000000     2.002000000
C     5.485000000    -2.285000000     3.140000000
C     5.742000000    -2.001000000     4.471000000
H     6.320000000    -1.109000000     4.701000000
C     5.355000000    -2.911000000     5.441000000
H     5.637000000    -2.689000000     6.467000000
C     4.679000000    -4.089000000     5.164000000
H     4.400000000    -4.796000000     5.941000000
C     4.297000000    -4.262000000     3.815000000
C     4.780000000    -3.401000000     2.833000000
H     4.478000000    -3.568000000     1.802000000
C     3.458000000    -1.700000000    -0.306000000
H     4.264000000    -2.389000000    -0.067000000
C     2.333000000    -1.496000000     0.526000000
H     2.112000000    -2.102000000     1.401000000
C     1.348000000    -0.625000000     0.178000000
H     0.423000000    -0.510000000     0.894000000
C     1.487000000     0.115000000    -0.986000000
H     0.745000000     0.846000000    -1.297000000
C     2.670000000    -0.002000000    -1.771000000
H     2.760000000     0.565000000    -2.694000000
C     3.624000000    -1.001000000    -1.502000000
C     4.685000000    -1.347000000    -2.482000000
O     4.642000000    -0.731000000    -3.532000000
O     5.342000000    -2.380000000    -2.399000000
O    -0.001000000    -4.406000000    -4.192000000
H    -0.889000000    -4.705000000    -3.999000000
H     0.203000000    -3.791000000    -3.488000000
O     5.166000000    -4.376000000    -7.507000000
H     5.358000000    -3.578000000    -7.013000000
H     5.707000000    -5.049000000    -7.094000000
O     3.831000000    -6.275000000    -5.432000000
H     4.711000000    -6.637000000    -5.324000000
H     3.801000000    -5.534000000    -4.826000000
O     0.807000000    -2.901000000    -2.046000000
H     0.825000000    -2.050000000    -1.607000000
H     1.566000000    -3.367000000    -1.697000000
O     7.506000000     0.718000000    -6.368000000
H     6.861000000     0.429000000    -7.014000000
H     7.086000000     0.556000000    -5.523000000
O     2.558000000    -1.452000000    -5.106000000
H     2.068000000    -2.236000000    -4.857000000
H     3.039000000    -1.209000000    -4.316000000
O     3.242000000    -0.282000000    -7.826000000
H     2.487000000    -0.357000000    -7.241000000
H     2.879000000    -0.403000000    -8.703000000
O     6.952000000    -3.823000000    -0.530000000
H     6.833000000    -3.058000000    -1.093000000
H     6.324000000    -4.464000000    -0.863000000
O     6.173000000    -2.589000000    -5.511000000
H     5.596000000    -2.383000000    -4.776000000
H     5.985000000    -1.912000000    -6.161000000
O     9.358000000    -2.677000000    -3.098000000
H     9.316000000    -2.113000000    -2.325000000
H     8.492000000    -2.602000000    -3.497000000
O     7.361000000     0.281000000    -3.359000000
H     6.609000000    -0.260000000    -3.601000000
H     7.159000000     0.592000000    -2.477000000
O     9.911000000    -0.545000000    -1.173000000
H     9.850000000    -0.340000000    -0.240000000
H     9.764000000     0.293000000    -1.612000000
O     9.622000000     0.753000000    -4.462000000
H     8.903000000     0.381000000    -3.951000000
H     9.273000000     0.823000000    -5.350000000
O     4.447000000     0.879000000    -5.689000000
H     3.711000000     0.606000000    -6.237000000
H     4.467000000     0.238000000    -4.978000000
O     5.898000000    -1.222000000    -7.776000000
H     4.975000000    -0.973000000    -7.733000000
H     5.940000000    -1.859000000    -8.489000000
O     8.531000000    -3.074000000     1.661000000
H     7.928000000    -3.539000000     1.081000000
H     8.027000000    -2.325000000     1.980000000
O     3.778000000    -4.150000000    -3.680000000
H     4.372000000    -3.463000000    -3.379000000
H     3.041000000    -4.113000000    -3.070000000
O     2.582000000    -5.036000000    -1.400000000
H     2.979000000    -5.567000000    -0.709000000
H     2.116000000    -5.666000000    -1.949000000
O     8.844000000    -3.283000000    -6.431000000
H     8.705000000    -3.733000000    -7.264000000
H     7.985000000    -3.287000000    -6.009000000
