215
-1459.47211
C    -4.010000000    -0.786000000    -3.679000000
H    -4.283000000     0.261000000    -3.788000000
C    -4.044000000    -1.448000000    -2.407000000
C    -3.686000000    -2.808000000    -2.333000000
H    -3.752000000    -3.280000000    -1.356000000
C    -4.099000000    -0.703000000    -1.147000000
O    -4.874000000     0.546000000    -1.295000000
H    -3.075000000    -0.448000000    -0.837000000
O    -4.796000000    -1.337000000    -0.021000000
C    -4.208000000    -1.238000000     1.254000000
C    -3.389000000    -2.211000000     1.609000000
H    -3.127000000    -3.052000000     0.972000000
C    -2.740000000    -2.070000000     2.821000000
O    -1.884000000    -3.090000000     3.071000000
C    -2.880000000    -0.947000000     3.698000000
C    -2.225000000    -0.725000000     5.131000000
H    -2.871000000    -0.095000000     5.746000000
C    -0.860000000    -0.154000000     4.936000000
C    -0.555000000     1.198000000     5.073000000
H    -1.318000000     1.825000000     5.528000000
H    -2.022000000    -1.677000000     5.626000000
C    -3.728000000     0.075000000     3.290000000
H    -3.891000000     0.876000000     4.005000000
C    -4.337000000    -0.050000000     1.986000000
C    -5.223000000     1.092000000     1.546000000
H    -5.587000000     1.715000000     2.365000000
H    -6.076000000     0.626000000     1.047000000
C    -4.495000000     1.984000000     0.561000000
C    -3.848000000     3.092000000     1.186000000
H    -3.957000000     3.186000000     2.263000000
C    -4.458000000     1.722000000    -0.780000000
C    -3.645000000     2.541000000    -1.594000000
H    -3.420000000     2.260000000    -2.620000000
C    -2.881000000     3.631000000    -0.989000000
O    -1.957000000     4.304000000    -1.716000000
C    -0.615000000     3.808000000    -1.612000000
C     0.074000000     3.613000000    -3.007000000
C     1.496000000     3.710000000    -3.080000000
H     1.987000000     3.858000000    -2.121000000
C    -0.646000000     3.322000000    -4.103000000
H    -1.721000000     3.466000000    -4.178000000
O     0.139000000     4.666000000    -0.693000000
H    -0.581000000     2.882000000    -1.019000000
C    -3.051000000     3.894000000     0.372000000
C    -2.166000000     5.010000000     1.032000000
H    -2.664000000     5.599000000     1.805000000
H    -1.997000000     5.706000000     0.207000000
C    -0.801000000     4.433000000     1.487000000
C    -0.608000000     4.207000000     2.832000000
H    -1.420000000     4.205000000     3.555000000
C     0.251000000     4.342000000     0.657000000
C     1.498000000     3.975000000     0.995000000
H     2.201000000     3.776000000     0.189000000
C     1.706000000     3.621000000     2.361000000
O     2.960000000     3.094000000     2.631000000
C     3.073000000     1.648000000     2.565000000
C     4.304000000     1.082000000     1.847000000
C     4.609000000     1.638000000     0.621000000
H     4.120000000     2.541000000     0.266000000
C     4.800000000    -0.239000000     2.120000000
H     4.341000000    -0.694000000     2.994000000
O     2.956000000     1.157000000     3.870000000
H     2.255000000     1.272000000     1.933000000
C     0.650000000     3.728000000     3.277000000
C     0.921000000     3.252000000     4.744000000
H     0.278000000     3.804000000     5.433000000
H     1.917000000     3.511000000     5.109000000
C     0.683000000     1.716000000     4.682000000
C     1.677000000     0.800000000     4.274000000
C     1.461000000    -0.536000000     4.207000000
H     2.225000000    -1.213000000     3.836000000
C     0.204000000    -0.994000000     4.502000000
O     0.044000000    -2.314000000     4.226000000
C    -0.489000000    -2.822000000     2.914000000
H    -0.414000000    -1.984000000     2.207000000
C     0.311000000    -3.999000000     2.452000000
C    -0.239000000    -4.730000000     1.375000000
H    -1.192000000    -4.452000000     0.932000000
C     1.616000000    -4.195000000     2.872000000
H     2.110000000    -3.511000000     3.558000000
C     2.299000000    -5.374000000     2.423000000
O     3.471000000    -5.735000000     3.042000000
C     1.731000000    -6.182000000     1.414000000
H     2.304000000    -7.061000000     1.128000000
C     0.435000000    -5.839000000     0.905000000
O    -0.115000000    -6.698000000    -0.068000000
C    -1.421000000    -6.530000000    -0.412000000
C    -1.663000000    -5.875000000    -1.657000000
H    -0.850000000    -5.662000000    -2.346000000
C    -2.461000000    -6.796000000     0.458000000
H    -2.216000000    -7.290000000     1.395000000
C    -3.782000000    -6.513000000     0.059000000
H    -4.580000000    -6.863000000     0.708000000
C    -3.995000000    -6.010000000    -1.196000000
H    -4.989000000    -5.656000000    -1.459000000
C    -2.927000000    -5.612000000    -2.044000000
O    -3.105000000    -4.866000000    -3.246000000
C    -3.482000000    -3.554000000    -3.465000000
C    -3.390000000    -2.921000000    -4.716000000
H    -3.145000000    -3.527000000    -5.584000000
C    -3.660000000    -1.558000000    -4.809000000
O    -3.628000000    -0.961000000    -6.044000000
C    -3.412000000     0.298000000    -6.448000000
C    -2.199000000     0.919000000    -6.132000000
H    -1.412000000     0.360000000    -5.632000000
C    -4.452000000     1.047000000    -7.011000000
H    -5.447000000     0.628000000    -7.131000000
C    -4.175000000     2.339000000    -7.432000000
H    -4.931000000     2.882000000    -7.991000000
C    -2.973000000     2.910000000    -7.161000000
H    -2.760000000     3.902000000    -7.551000000
C    -1.982000000     2.223000000    -6.446000000
O    -0.678000000     2.614000000    -6.437000000
C    -0.015000000     3.026000000    -5.296000000
C     1.421000000     3.108000000    -5.357000000
H     1.853000000     3.140000000    -6.354000000
C     2.161000000     3.577000000    -4.259000000
O     3.453000000     3.894000000    -4.463000000
C     4.339000000     3.913000000    -3.415000000
C     4.819000000     2.756000000    -2.910000000
H     4.478000000     1.808000000    -3.319000000
C     4.825000000     5.107000000    -2.959000000
H     4.345000000     5.973000000    -3.408000000
C     5.798000000     5.166000000    -1.956000000
H     6.228000000     6.129000000    -1.691000000
C     6.264000000     4.005000000    -1.335000000
H     6.944000000     4.102000000    -0.493000000
C     5.772000000     2.782000000    -1.840000000
O     6.123000000     1.576000000    -1.370000000
C     5.641000000     1.059000000    -0.176000000
C     6.226000000    -0.103000000     0.248000000
H     6.931000000    -0.554000000    -0.446000000
C     5.704000000    -0.825000000     1.306000000
O     6.269000000    -2.028000000     1.562000000
C     5.805000000    -2.971000000     2.482000000
C     6.801000000    -3.307000000     3.385000000
H     7.728000000    -2.749000000     3.493000000
C     6.563000000    -4.387000000     4.222000000
H     7.359000000    -4.534000000     4.948000000
C     5.378000000    -5.134000000     4.188000000
H     5.164000000    -6.022000000     4.776000000
C     4.489000000    -4.806000000     3.202000000
C     4.656000000    -3.729000000     2.340000000
H     3.978000000    -3.459000000     1.534000000
C     2.115000000    -0.339000000    -0.556000000
H     3.099000000    -0.640000000    -0.207000000
C     0.985000000    -0.206000000     0.268000000
H     1.039000000    -0.344000000     1.345000000
C    -0.248000000     0.043000000    -0.273000000
H    -1.127000000     0.090000000     0.414000000
C    -0.366000000     0.287000000    -1.652000000
H    -1.339000000     0.601000000    -2.019000000
C     0.676000000     0.019000000    -2.512000000
H     0.466000000     0.025000000    -3.579000000
C     1.950000000    -0.258000000    -1.975000000
C     3.050000000    -0.781000000    -2.900000000
O     2.758000000    -1.615000000    -3.768000000
O     4.216000000    -0.638000000    -2.562000000
O     3.619000000    -4.062000000    -7.466000000
H     2.991000000    -4.292000000    -6.781000000
H     3.080000000    -3.722000000    -8.180000000
O     3.094000000    -5.355000000    -3.518000000
H     3.691000000    -5.868000000    -2.974000000
H     3.600000000    -4.581000000    -3.765000000
O     6.821000000    -4.902000000    -2.794000000
H     6.830000000    -4.297000000    -2.053000000
H     6.290000000    -4.461000000    -3.457000000
O     0.275000000    -1.884000000    -7.497000000
H     0.038000000    -2.740000000    -7.855000000
H     0.345000000    -2.030000000    -6.553000000
O     0.037000000    -3.283000000    -1.910000000
H     0.831000000    -3.709000000    -1.587000000
H     0.271000000    -2.357000000    -1.976000000
O     6.491000000    -0.241000000    -6.759000000
H     5.609000000    -0.546000000    -6.550000000
H     6.831000000     0.098000000    -5.931000000
O     0.497000000    -2.598000000    -4.791000000
H    -0.089000000    -2.851000000    -4.077000000
H     1.322000000    -2.378000000    -4.356000000
O     1.766000000     0.547000000    -7.872000000
H     1.374000000     1.172000000    -8.482000000
H     1.186000000    -0.214000000    -7.904000000
O     5.229000000    -2.845000000    -1.536000000
H     4.930000000    -1.958000000    -1.735000000
H     6.058000000    -2.721000000    -1.074000000
O     5.192000000    -3.168000000    -4.417000000
H     5.848000000    -2.748000000    -3.860000000
H     4.393000000    -2.663000000    -4.267000000
O     8.888000000    -1.693000000    -4.051000000
H     8.215000000    -1.019000000    -3.953000000
H     9.211000000    -1.839000000    -3.162000000
O     6.514000000    -0.046000000    -3.574000000
H     5.647000000    -0.231000000    -3.215000000
H     6.859000000     0.654000000    -3.019000000
O     6.480000000     3.421000000    -5.889000000
H     7.198000000     2.836000000    -5.647000000
H     5.701000000     3.015000000    -5.508000000
O     3.728000000    -0.633000000    -6.213000000
H     3.018000000    -0.248000000    -6.726000000
H     3.292000000    -1.023000000    -5.455000000
O     1.370000000    -4.818000000    -5.931000000
H     1.255000000    -3.904000000    -5.671000000
H     1.851000000    -5.215000000    -5.206000000
O     4.213000000    -0.533000000    -9.342000000
H     4.149000000    -0.380000000    -8.399000000
H     3.714000000    -1.336000000    -9.489000000
O     3.846000000     2.617000000    -7.684000000
H     4.539000000     2.072000000    -7.311000000
H     3.597000000     2.169000000    -8.492000000
O     2.824000000    -4.017000000    -0.860000000
H     3.677000000    -3.633000000    -1.062000000
H     2.886000000    -4.918000000    -1.178000000
O     6.167000000    -4.537000000    -7.301000000
H     5.358000000    -4.305000000    -6.844000000
H     5.975000000    -5.377000000    -7.716000000
