215
-1467.01173
C    -4.322000000    -2.089000000    -2.359000000
H    -4.379000000    -1.217000000    -3.005000000
C    -4.193000000    -1.994000000    -0.966000000
C    -3.944000000    -3.115000000    -0.195000000
H    -3.774000000    -3.015000000     0.874000000
C    -4.176000000    -0.565000000    -0.326000000
O    -4.924000000     0.429000000    -1.066000000
H    -3.122000000    -0.257000000    -0.252000000
O    -4.766000000    -0.566000000     0.972000000
C    -4.092000000     0.005000000     1.959000000
C    -3.326000000    -0.794000000     2.752000000
H    -3.269000000    -1.875000000     2.649000000
C    -2.556000000    -0.171000000     3.721000000
O    -1.699000000    -0.963000000     4.381000000
C    -2.692000000     1.235000000     4.001000000
C    -1.832000000     2.005000000     5.027000000
H    -2.269000000     2.990000000     5.209000000
C    -0.434000000     2.231000000     4.469000000
C    -0.149000000     3.384000000     3.771000000
H    -0.921000000     4.148000000     3.731000000
H    -1.925000000     1.365000000     5.907000000
C    -3.505000000     2.028000000     3.188000000
H    -3.660000000     3.084000000     3.395000000
C    -4.224000000     1.389000000     2.144000000
C    -5.034000000     2.188000000     1.103000000
H    -5.366000000     3.142000000     1.520000000
H    -5.954000000     1.641000000     0.885000000
C    -4.280000000     2.528000000    -0.213000000
C    -3.453000000     3.625000000    -0.333000000
H    -3.385000000     4.246000000     0.556000000
C    -4.261000000     1.586000000    -1.296000000
C    -3.470000000     1.724000000    -2.411000000
H    -3.332000000     0.897000000    -3.102000000
C    -2.731000000     2.886000000    -2.530000000
O    -1.877000000     2.881000000    -3.605000000
C    -0.503000000     2.405000000    -3.285000000
C     0.010000000     1.505000000    -4.361000000
C     1.342000000     1.354000000    -4.617000000
H     2.001000000     1.874000000    -3.926000000
C    -0.953000000     0.804000000    -5.109000000
H    -2.014000000     0.936000000    -4.913000000
O     0.317000000     3.602000000    -3.107000000
H    -0.496000000     1.870000000    -2.324000000
C    -2.700000000     3.840000000    -1.495000000
C    -1.719000000     4.989000000    -1.526000000
H    -2.093000000     5.875000000    -1.010000000
H    -1.507000000     5.336000000    -2.539000000
C    -0.385000000     4.571000000    -0.968000000
C    -0.138000000     4.735000000     0.364000000
H    -0.833000000     5.213000000     1.049000000
C     0.500000000     3.944000000    -1.811000000
C     1.797000000     3.833000000    -1.283000000
H     2.596000000     3.464000000    -1.921000000
C     2.123000000     4.035000000     0.042000000
O     3.381000000     3.736000000     0.510000000
C     3.445000000     2.427000000     1.050000000
C     4.564000000     1.525000000     0.631000000
C     5.091000000     1.554000000    -0.662000000
H     4.836000000     2.340000000    -1.368000000
C     4.968000000     0.480000000     1.455000000
H     4.546000000     0.433000000     2.455000000
O     3.352000000     2.569000000     2.457000000
H     2.651000000     1.772000000     0.661000000
C     1.104000000     4.488000000     0.864000000
C     1.386000000     4.783000000     2.287000000
H     0.839000000     5.677000000     2.594000000
H     2.427000000     5.095000000     2.392000000
C     1.098000000     3.573000000     3.190000000
C     2.071000000     2.550000000     3.129000000
C     1.800000000     1.364000000     3.817000000
H     2.503000000     0.541000000     3.718000000
C     0.615000000     1.254000000     4.562000000
O     0.275000000     0.028000000     5.076000000
C    -0.314000000    -0.859000000     4.151000000
H    -0.098000000    -0.444000000     3.155000000
C     0.380000000    -2.274000000     4.152000000
C    -0.317000000    -3.398000000     3.697000000
H    -1.333000000    -3.214000000     3.355000000
C     1.717000000    -2.374000000     4.556000000
H     2.272000000    -1.534000000     4.966000000
C     2.370000000    -3.576000000     4.475000000
O     3.672000000    -3.658000000     5.046000000
C     1.674000000    -4.684000000     4.092000000
H     2.276000000    -5.588000000     4.052000000
C     0.279000000    -4.667000000     3.723000000
O    -0.346000000    -5.769000000     3.362000000
C    -1.709000000    -5.850000000     3.023000000
C    -1.970000000    -5.655000000     1.674000000
H    -1.162000000    -5.656000000     0.947000000
C    -2.785000000    -5.844000000     3.926000000
H    -2.653000000    -5.772000000     5.003000000
C    -4.060000000    -5.717000000     3.480000000
H    -4.864000000    -5.901000000     4.188000000
C    -4.352000000    -5.650000000     2.103000000
H    -5.381000000    -5.729000000     1.761000000
C    -3.282000000    -5.544000000     1.216000000
O    -3.560000000    -5.524000000    -0.112000000
C    -3.865000000    -4.359000000    -0.775000000
C    -4.044000000    -4.477000000    -2.133000000
H    -3.991000000    -5.406000000    -2.695000000
C    -4.179000000    -3.346000000    -2.941000000
O    -4.450000000    -3.478000000    -4.239000000
C    -4.272000000    -2.528000000    -5.211000000
C    -2.994000000    -1.988000000    -5.350000000
H    -2.189000000    -2.391000000    -4.740000000
C    -5.236000000    -2.286000000    -6.184000000
H    -6.151000000    -2.854000000    -6.032000000
C    -5.000000000    -1.428000000    -7.284000000
H    -5.719000000    -1.326000000    -8.092000000
C    -3.694000000    -0.809000000    -7.344000000
H    -3.366000000    -0.340000000    -8.269000000
C    -2.660000000    -1.205000000    -6.477000000
O    -1.339000000    -0.903000000    -6.753000000
C    -0.537000000    -0.118000000    -6.023000000
C     0.871000000    -0.299000000    -6.237000000
H     1.240000000    -0.929000000    -7.042000000
C     1.812000000     0.445000000    -5.537000000
O     3.130000000     0.226000000    -5.832000000
C     4.175000000     0.928000000    -5.193000000
C     4.807000000     0.497000000    -4.023000000
H     4.466000000    -0.432000000    -3.573000000
C     4.549000000     2.148000000    -5.775000000
H     4.088000000     2.544000000    -6.676000000
C     5.650000000     2.809000000    -5.175000000
H     5.926000000     3.713000000    -5.713000000
C     6.292000000     2.396000000    -4.020000000
H     7.196000000     2.758000000    -3.536000000
C     5.828000000     1.267000000    -3.397000000
O     6.533000000     0.713000000    -2.375000000
C     5.995000000     0.584000000    -1.141000000
C     6.332000000    -0.512000000    -0.318000000
H     6.916000000    -1.290000000    -0.805000000
C     5.935000000    -0.514000000     1.029000000
O     6.419000000    -1.402000000     1.945000000
C     6.036000000    -1.581000000     3.227000000
C     6.751000000    -1.010000000     4.285000000
H     7.636000000    -0.389000000     4.178000000
C     6.410000000    -1.230000000     5.593000000
H     6.864000000    -0.641000000     6.386000000
C     5.301000000    -2.046000000     5.845000000
H     4.896000000    -2.150000000     6.849000000
C     4.670000000    -2.724000000     4.824000000
C     4.987000000    -2.394000000     3.485000000
H     4.469000000    -2.781000000     2.611000000
C     2.195000000    -0.888000000    -0.452000000
H     3.194000000    -1.034000000    -0.050000000
C     1.201000000    -0.327000000     0.396000000
H     1.373000000    -0.054000000     1.434000000
C    -0.068000000    -0.005000000    -0.113000000
H    -0.851000000     0.319000000     0.591000000
C    -0.365000000    -0.331000000    -1.382000000
H    -1.404000000    -0.212000000    -1.681000000
C     0.463000000    -1.096000000    -2.097000000
H     0.092000000    -1.526000000    -3.024000000
C     1.795000000    -1.383000000    -1.651000000
C     2.678000000    -2.281000000    -2.489000000
O     2.360000000    -2.612000000    -3.592000000
O     3.729000000    -2.657000000    -1.991000000
O     0.301000000    -3.433000000    -4.892000000
H    -0.248000000    -3.814000000    -4.206000000
H     1.070000000    -3.102000000    -4.427000000
O     2.083000000    -6.060000000     1.096000000
H     1.490000000    -6.810000000     1.121000000
H     2.260000000    -5.925000000     0.165000000
O     5.427000000    -6.544000000    -2.660000000
H     5.939000000    -6.888000000    -3.392000000
H     4.663000000    -6.139000000    -3.071000000
O     5.466000000    -6.024000000    -7.295000000
H     4.838000000    -6.477000000    -7.859000000
H     4.995000000    -5.249000000    -6.988000000
O     4.681000000    -2.561000000    -6.305000000
H     3.890000000    -2.118000000    -5.998000000
H     5.286000000    -1.851000000    -6.520000000
O     4.571000000    -5.496000000     2.263000000
H     5.161000000    -5.234000000     1.557000000
H     3.720000000    -5.603000000     1.838000000
O     0.388000000    -6.740000000    -3.465000000
H    -0.274000000    -6.189000000    -3.048000000
H    -0.082000000    -7.191000000    -4.166000000
O     3.543000000    -4.516000000    -4.742000000
H     4.468000000    -4.359000000    -4.930000000
H     3.247000000    -3.715000000    -4.310000000
O    -0.730000000    -4.262000000    -2.382000000
H     0.007000000    -4.175000000    -1.778000000
H    -1.498000000    -4.041000000    -1.855000000
O     5.710000000    -4.129000000    -0.940000000
H     5.660000000    -4.827000000    -1.592000000
H     5.045000000    -3.497000000    -1.215000000
O     8.299000000    -3.851000000    -4.747000000
H     7.563000000    -3.682000000    -4.158000000
H     8.601000000    -2.981000000    -5.008000000
O     7.522000000    -5.308000000     0.753000000
H     8.225000000    -4.726000000     1.042000000
H     6.912000000    -4.733000000     0.290000000
O     1.208000000    -4.221000000    -7.525000000
H     1.059000000    -4.013000000    -6.602000000
H     1.036000000    -5.160000000    -7.590000000
O     6.731000000    -0.766000000    -6.271000000
H     6.718000000     0.188000000    -6.344000000
H     7.629000000    -0.975000000    -6.014000000
O     5.867000000    -2.924000000    -3.846000000
H     5.206000000    -2.788000000    -3.167000000
H     5.599000000    -2.347000000    -4.561000000
O     3.670000000    -3.869000000    -8.707000000
H     3.999000000    -3.383000000    -7.951000000
H     2.814000000    -4.195000000    -8.427000000
O     2.900000000    -7.254000000    -4.677000000
H     2.194000000    -7.107000000    -4.048000000
H     3.156000000    -6.376000000    -4.960000000
O     2.361000000    -5.699000000    -1.637000000
H     2.527000000    -4.851000000    -2.048000000
H     1.739000000    -6.132000000    -2.222000000
O     0.453000000    -3.862000000     0.054000000
H     0.612000000    -2.919000000     0.086000000
H     0.927000000    -4.211000000     0.809000000
