215
-1454.40260
C    -4.353000000    -2.624000000    -2.139000000
H    -4.497000000    -1.744000000    -2.761000000
C    -4.151000000    -2.426000000    -0.786000000
C    -4.049000000    -3.477000000     0.100000000
H    -3.912000000    -3.240000000     1.152000000
C    -4.267000000    -1.062000000    -0.189000000
O    -4.894000000    -0.141000000    -1.050000000
H    -3.217000000    -0.781000000    -0.023000000
O    -4.862000000    -1.026000000     1.087000000
C    -4.248000000    -0.188000000     2.013000000
C    -3.526000000    -0.838000000     3.018000000
H    -3.575000000    -1.915000000     3.156000000
C    -2.756000000    -0.069000000     3.848000000
O    -1.851000000    -0.755000000     4.672000000
C    -2.780000000     1.385000000     3.861000000
C    -1.918000000     2.217000000     4.787000000
H    -2.409000000     3.172000000     4.985000000
C    -0.503000000     2.488000000     4.267000000
C    -0.311000000     3.606000000     3.456000000
H    -1.191000000     4.221000000     3.287000000
H    -1.856000000     1.675000000     5.733000000
C    -3.559000000     1.957000000     2.922000000
H    -3.517000000     3.028000000     2.743000000
C    -4.243000000     1.220000000     1.987000000
C    -5.060000000     1.973000000     0.927000000
H    -5.404000000     2.932000000     1.321000000
H    -5.902000000     1.290000000     0.794000000
C    -4.312000000     2.129000000    -0.430000000
C    -3.460000000     3.191000000    -0.615000000
H    -3.268000000     3.911000000     0.176000000
C    -4.359000000     1.110000000    -1.344000000
C    -3.586000000     1.228000000    -2.521000000
H    -3.423000000     0.337000000    -3.122000000
C    -2.791000000     2.377000000    -2.761000000
O    -1.829000000     2.341000000    -3.780000000
C    -0.413000000     2.201000000    -3.491000000
C     0.253000000     1.292000000    -4.503000000
C     1.549000000     1.571000000    -4.897000000
H     2.068000000     2.470000000    -4.574000000
C    -0.359000000     0.113000000    -4.822000000
H    -1.261000000    -0.084000000    -4.248000000
O     0.137000000     3.546000000    -3.478000000
H    -0.193000000     1.835000000    -2.478000000
C    -2.795000000     3.379000000    -1.809000000
C    -2.043000000     4.753000000    -1.998000000
H    -2.494000000     5.580000000    -1.445000000
H    -1.995000000     5.078000000    -3.040000000
C    -0.667000000     4.603000000    -1.432000000
C    -0.404000000     4.991000000    -0.094000000
H    -1.190000000     5.291000000     0.593000000
C     0.335000000     4.040000000    -2.243000000
C     1.596000000     3.860000000    -1.620000000
H     2.414000000     3.298000000    -2.064000000
C     1.850000000     4.312000000    -0.332000000
O     3.053000000     3.997000000     0.195000000
C     3.101000000     2.772000000     0.897000000
C     4.326000000     1.914000000     0.444000000
C     4.848000000     1.941000000    -0.836000000
H     4.429000000     2.669000000    -1.526000000
C     4.904000000     0.988000000     1.394000000
H     4.463000000     0.922000000     2.385000000
O     3.073000000     2.971000000     2.278000000
H     2.217000000     2.186000000     0.605000000
C     0.858000000     4.802000000     0.488000000
C     1.111000000     5.123000000     1.941000000
H     0.584000000     5.985000000     2.358000000
H     2.168000000     5.396000000     1.982000000
C     0.938000000     3.859000000     2.830000000
C     1.916000000     2.863000000     3.010000000
C     1.737000000     1.693000000     3.691000000
H     2.506000000     0.926000000     3.744000000
C     0.499000000     1.520000000     4.384000000
O     0.218000000     0.319000000     5.013000000
C    -0.499000000    -0.698000000     4.189000000
H    -0.593000000    -0.413000000     3.131000000
C     0.136000000    -2.146000000     4.185000000
C    -0.607000000    -3.318000000     4.143000000
H    -1.685000000    -3.311000000     4.001000000
C     1.529000000    -2.203000000     4.224000000
H     2.097000000    -1.278000000     4.155000000
C     2.182000000    -3.392000000     4.165000000
O     3.539000000    -3.495000000     4.258000000
C     1.453000000    -4.605000000     4.203000000
H     2.061000000    -5.506000000     4.171000000
C     0.037000000    -4.539000000     4.161000000
O    -0.731000000    -5.690000000     4.204000000
C    -1.954000000    -5.711000000     3.651000000
C    -2.167000000    -5.786000000     2.260000000
H    -1.346000000    -5.747000000     1.549000000
C    -3.087000000    -5.790000000     4.482000000
H    -2.870000000    -5.654000000     5.538000000
C    -4.355000000    -6.044000000     4.045000000
H    -5.125000000    -6.334000000     4.755000000
C    -4.576000000    -6.007000000     2.665000000
H    -5.578000000    -6.097000000     2.253000000
C    -3.510000000    -5.896000000     1.744000000
O    -3.701000000    -5.947000000     0.395000000
C    -3.873000000    -4.787000000    -0.403000000
C    -3.911000000    -4.976000000    -1.779000000
H    -3.779000000    -5.972000000    -2.193000000
C    -4.073000000    -3.912000000    -2.638000000
O    -4.039000000    -4.215000000    -3.983000000
C    -3.520000000    -3.303000000    -4.886000000
C    -2.173000000    -3.102000000    -4.954000000
H    -1.579000000    -3.663000000    -4.237000000
C    -4.339000000    -2.660000000    -5.788000000
H    -5.384000000    -2.960000000    -5.790000000
C    -3.821000000    -1.671000000    -6.645000000
H    -4.516000000    -1.051000000    -7.207000000
C    -2.424000000    -1.504000000    -6.699000000
H    -2.068000000    -0.784000000    -7.431000000
C    -1.606000000    -2.274000000    -5.904000000
O    -0.267000000    -2.064000000    -5.943000000
C     0.279000000    -0.834000000    -5.700000000
C     1.582000000    -0.508000000    -6.087000000
H     2.042000000    -1.209000000    -6.778000000
C     2.222000000     0.673000000    -5.717000000
O     3.515000000     0.871000000    -6.177000000
C     4.430000000     1.555000000    -5.493000000
C     4.863000000     1.093000000    -4.265000000
H     4.488000000     0.114000000    -3.980000000
C     4.794000000     2.817000000    -6.046000000
H     4.310000000     3.110000000    -6.974000000
C     5.674000000     3.602000000    -5.267000000
H     6.105000000     4.504000000    -5.695000000
C     6.277000000     3.101000000    -4.128000000
H     7.150000000     3.600000000    -3.714000000
C     5.798000000     1.892000000    -3.548000000
O     6.409000000     1.300000000    -2.451000000
C     5.913000000     1.196000000    -1.173000000
C     6.466000000     0.297000000    -0.258000000
H     7.325000000    -0.281000000    -0.590000000
C     5.989000000     0.221000000     1.043000000
O     6.529000000    -0.681000000     1.913000000
C     6.004000000    -1.064000000     3.112000000
C     6.471000000    -0.523000000     4.349000000
H     7.270000000     0.212000000     4.391000000
C     5.844000000    -0.948000000     5.444000000
H     6.088000000    -0.504000000     6.406000000
C     4.891000000    -1.977000000     5.470000000
H     4.364000000    -2.394000000     6.324000000
C     4.487000000    -2.547000000     4.265000000
C     5.042000000    -2.104000000     3.060000000
H     4.583000000    -2.510000000     2.163000000
C     1.476000000    -1.852000000    -0.375000000
H     2.427000000    -2.335000000    -0.162000000
C     0.977000000    -0.676000000     0.193000000
H     1.420000000    -0.221000000     1.075000000
C    -0.149000000    -0.051000000    -0.355000000
H    -0.533000000     0.896000000     0.119000000
C    -0.865000000    -0.693000000    -1.303000000
H    -1.821000000    -0.286000000    -1.621000000
C    -0.365000000    -1.801000000    -2.028000000
H    -0.950000000    -2.184000000    -2.860000000
C     0.796000000    -2.458000000    -1.481000000
C     1.186000000    -3.771000000    -2.044000000
O     0.322000000    -4.603000000    -2.409000000
O     2.393000000    -4.104000000    -2.173000000
O     0.897000000    -4.753000000    -5.018000000
H     0.099000000    -5.034000000    -5.464000000
H     0.648000000    -4.694000000    -4.095000000
O     1.124000000    -7.653000000     1.010000000
H     0.492000000    -8.181000000     1.497000000
H     0.664000000    -7.410000000     0.206000000
O     5.747000000    -6.535000000    -2.301000000
H     6.401000000    -7.090000000    -2.726000000
H     4.926000000    -6.750000000    -2.744000000
O     3.062000000    -6.151000000    -3.673000000
H     2.298000000    -6.660000000    -3.945000000
H     2.711000000    -5.493000000    -3.073000000
O    -1.362000000    -5.745000000    -6.243000000
H    -2.149000000    -5.661000000    -6.782000000
H    -1.285000000    -6.684000000    -6.077000000
O     3.318000000    -2.547000000    -5.020000000
H     3.137000000    -3.474000000    -5.178000000
H     2.471000000    -2.177000000    -4.771000000
O    -2.092000000    -8.220000000    -2.832000000
H    -2.641000000    -8.460000000    -3.579000000
H    -2.577000000    -8.532000000    -2.069000000
O     0.006000000    -7.085000000    -1.274000000
H     0.045000000    -6.156000000    -1.501000000
H    -0.879000000    -7.355000000    -1.519000000
O     5.623000000    -6.327000000     0.514000000
H     6.021000000    -6.405000000    -0.353000000
H     4.702000000    -6.131000000     0.339000000
O     0.587000000    -8.748000000    -3.391000000
H    -0.234000000    -8.284000000    -3.558000000
H     0.748000000    -8.619000000    -2.456000000
O     6.633000000    -3.288000000    -0.178000000
H     6.269000000    -4.053000000     0.268000000
H     6.312000000    -3.360000000    -1.077000000
O     1.429000000    -3.770000000    -8.176000000
H     1.211000000    -3.455000000    -7.299000000
H     1.241000000    -4.708000000    -8.148000000
O     5.036000000    -4.035000000    -2.803000000
H     4.133000000    -3.899000000    -2.515000000
H     5.206000000    -4.961000000    -2.628000000
O     6.827000000    -1.878000000    -3.791000000
H     7.469000000    -2.548000000    -3.556000000
H     5.979000000    -2.295000000    -3.637000000
O     2.156000000    -6.615000000    -6.531000000
H     1.439000000    -6.852000000    -7.119000000
H     1.787000000    -5.938000000    -5.964000000
O     5.284000000    -1.527000000    -6.667000000
H     6.005000000    -1.670000000    -6.054000000
H     4.511000000    -1.856000000    -6.209000000
O     4.856000000    -5.085000000    -5.495000000
H     4.874000000    -4.641000000    -4.647000000
H     4.036000000    -5.579000000    -5.489000000
O     3.636000000    -8.922000000    -5.008000000
H     3.590000000    -9.492000000    -5.776000000
H     3.179000000    -8.124000000    -5.275000000
O     2.875000000    -5.400000000     0.370000000
H     2.702000000    -4.851000000    -0.395000000
H     2.334000000    -6.177000000     0.233000000
