215
-1450.47664
C    -4.478000000    -2.665000000    -2.147000000
H    -5.179000000    -1.971000000    -2.605000000
C    -4.163000000    -2.372000000    -0.839000000
C    -3.445000000    -3.373000000    -0.115000000
H    -3.083000000    -3.207000000     0.896000000
C    -4.274000000    -0.969000000    -0.236000000
O    -5.046000000    -0.064000000    -1.107000000
H    -3.225000000    -0.659000000    -0.113000000
O    -4.866000000    -0.981000000     1.089000000
C    -4.397000000    -0.085000000     2.024000000
C    -3.584000000    -0.699000000     2.994000000
H    -3.565000000    -1.783000000     3.076000000
C    -2.697000000     0.030000000     3.746000000
O    -1.898000000    -0.656000000     4.660000000
C    -2.780000000     1.455000000     3.653000000
C    -1.948000000     2.328000000     4.602000000
H    -2.482000000     3.242000000     4.869000000
C    -0.572000000     2.553000000     4.112000000
C    -0.312000000     3.751000000     3.523000000
H    -1.129000000     4.465000000     3.456000000
H    -1.940000000     1.752000000     5.530000000
C    -3.639000000     2.057000000     2.696000000
H    -3.731000000     3.139000000     2.662000000
C    -4.463000000     1.234000000     1.931000000
C    -5.362000000     1.927000000     0.911000000
H    -5.652000000     2.914000000     1.277000000
H    -6.219000000     1.316000000     0.620000000
C    -4.545000000     2.166000000    -0.394000000
C    -3.694000000     3.287000000    -0.569000000
H    -3.830000000     4.092000000     0.150000000
C    -4.450000000     1.164000000    -1.328000000
C    -3.518000000     1.219000000    -2.358000000
H    -3.435000000     0.346000000    -3.001000000
C    -2.623000000     2.344000000    -2.474000000
O    -1.750000000     2.326000000    -3.449000000
C    -0.331000000     2.164000000    -3.149000000
C     0.315000000     1.140000000    -4.168000000
C     1.697000000     1.132000000    -4.530000000
H     2.322000000     1.923000000    -4.124000000
C    -0.474000000     0.184000000    -4.751000000
H    -1.544000000     0.133000000    -4.567000000
O     0.322000000     3.425000000    -3.226000000
H    -0.250000000     1.775000000    -2.123000000
C    -2.752000000     3.375000000    -1.577000000
C    -1.892000000     4.647000000    -1.722000000
H    -2.475000000     5.371000000    -1.150000000
H    -1.956000000     4.978000000    -2.760000000
C    -0.459000000     4.619000000    -1.300000000
C    -0.186000000     5.012000000     0.052000000
H    -1.031000000     5.357000000     0.644000000
C     0.563000000     4.080000000    -2.066000000
C     1.844000000     4.060000000    -1.509000000
H     2.632000000     3.559000000    -2.066000000
C     2.143000000     4.502000000    -0.218000000
O     3.361000000     4.205000000     0.222000000
C     3.267000000     2.877000000     0.864000000
C     4.424000000     1.950000000     0.530000000
C     5.116000000     2.164000000    -0.688000000
H     4.939000000     3.083000000    -1.241000000
C     4.632000000     0.744000000     1.213000000
H     4.033000000     0.492000000     2.085000000
O     3.150000000     3.022000000     2.337000000
H     2.331000000     2.322000000     0.705000000
C     1.120000000     4.960000000     0.642000000
C     1.257000000     5.185000000     2.139000000
H     0.625000000     6.034000000     2.408000000
H     2.306000000     5.435000000     2.304000000
C     0.928000000     3.878000000     2.864000000
C     1.918000000     2.948000000     3.003000000
C     1.684000000     1.836000000     3.750000000
H     2.422000000     1.038000000     3.743000000
C     0.468000000     1.612000000     4.335000000
O     0.199000000     0.391000000     4.997000000
C    -0.475000000    -0.629000000     4.200000000
H    -0.538000000    -0.294000000     3.155000000
C     0.184000000    -1.987000000     4.397000000
C    -0.603000000    -3.147000000     4.418000000
H    -1.686000000    -3.066000000     4.375000000
C     1.552000000    -2.167000000     4.694000000
H     2.179000000    -1.279000000     4.690000000
C     2.130000000    -3.419000000     4.852000000
O     3.445000000    -3.528000000     5.060000000
C     1.356000000    -4.522000000     4.736000000
H     1.769000000    -5.513000000     4.906000000
C    -0.022000000    -4.398000000     4.466000000
O    -0.828000000    -5.480000000     4.533000000
C    -1.873000000    -5.678000000     3.640000000
C    -1.747000000    -5.568000000     2.264000000
H    -0.838000000    -5.285000000     1.739000000
C    -3.200000000    -5.776000000     4.293000000
H    -3.257000000    -5.698000000     5.376000000
C    -4.302000000    -5.885000000     3.490000000
H    -5.239000000    -6.133000000     3.982000000
C    -4.159000000    -5.904000000     2.110000000
H    -5.031000000    -6.123000000     1.500000000
C    -2.903000000    -5.786000000     1.473000000
O    -2.830000000    -5.777000000     0.066000000
C    -3.271000000    -4.681000000    -0.663000000
C    -3.523000000    -4.856000000    -2.002000000
H    -3.359000000    -5.826000000    -2.464000000
C    -4.088000000    -3.806000000    -2.755000000
O    -4.268000000    -3.854000000    -4.129000000
C    -4.010000000    -2.871000000    -5.067000000
C    -2.656000000    -2.560000000    -5.154000000
H    -1.973000000    -2.952000000    -4.405000000
C    -4.971000000    -2.377000000    -5.945000000
H    -5.988000000    -2.751000000    -5.852000000
C    -4.516000000    -1.435000000    -6.935000000
H    -5.269000000    -0.955000000    -7.554000000
C    -3.179000000    -1.025000000    -6.985000000
H    -2.729000000    -0.458000000    -7.796000000
C    -2.220000000    -1.666000000    -6.134000000
O    -0.887000000    -1.476000000    -6.389000000
C     0.010000000    -0.728000000    -5.680000000
C     1.321000000    -0.634000000    -6.067000000
H     1.658000000    -1.291000000    -6.865000000
C     2.238000000     0.247000000    -5.455000000
O     3.606000000     0.250000000    -5.783000000
C     4.399000000     1.213000000    -5.229000000
C     5.088000000     0.925000000    -4.041000000
H     4.800000000     0.059000000    -3.450000000
C     4.957000000     2.310000000    -5.955000000
H     4.591000000     2.571000000    -6.944000000
C     5.990000000     3.100000000    -5.391000000
H     6.294000000     3.971000000    -5.966000000
C     6.534000000     2.796000000    -4.172000000
H     7.394000000     3.336000000    -3.784000000
C     6.068000000     1.683000000    -3.525000000
O     6.637000000     1.350000000    -2.343000000
C     5.928000000     1.162000000    -1.176000000
C     6.210000000     0.070000000    -0.365000000
H     6.808000000    -0.772000000    -0.704000000
C     5.584000000    -0.203000000     0.834000000
O     5.810000000    -1.451000000     1.415000000
C     5.648000000    -1.637000000     2.796000000
C     6.687000000    -1.292000000     3.666000000
H     7.571000000    -0.799000000     3.270000000
C     6.569000000    -1.632000000     5.044000000
H     7.372000000    -1.182000000     5.622000000
C     5.397000000    -2.189000000     5.511000000
H     5.311000000    -2.445000000     6.564000000
C     4.418000000    -2.581000000     4.581000000
C     4.521000000    -2.285000000     3.260000000
H     3.733000000    -2.563000000     2.564000000
C     2.415000000    -1.513000000    -0.077000000
H     3.416000000    -1.603000000     0.338000000
C     1.378000000    -0.985000000     0.735000000
H     1.584000000    -0.757000000     1.777000000
C     0.102000000    -0.871000000     0.215000000
H    -0.754000000    -0.415000000     0.858000000
C    -0.135000000    -1.163000000    -1.152000000
H    -1.146000000    -1.026000000    -1.527000000
C     0.879000000    -1.714000000    -1.967000000
H     0.665000000    -1.971000000    -3.001000000
C     2.181000000    -1.943000000    -1.410000000
C     3.204000000    -2.619000000    -2.330000000
O     2.843000000    -3.101000000    -3.365000000
O     4.380000000    -2.692000000    -2.026000000
O     1.795000000    -3.999000000    -5.626000000
H     1.260000000    -4.622000000    -5.135000000
H     2.250000000    -3.492000000    -4.953000000
O     6.117000000    -6.312000000    -1.926000000
H     6.868000000    -6.268000000    -2.518000000
H     5.364000000    -6.436000000    -2.503000000
O     3.364000000    -5.763000000    -2.708000000
H     2.498000000    -5.625000000    -2.322000000
H     3.586000000    -4.922000000    -3.106000000
O     5.208000000    -6.331000000     1.864000000
H     6.058000000    -6.221000000     2.289000000
H     5.130000000    -5.572000000     1.285000000
O    -0.645000000    -5.741000000    -4.977000000
H    -1.272000000    -5.257000000    -5.514000000
H    -0.759000000    -6.654000000    -5.240000000
O     4.438000000    -2.472000000    -5.629000000
H     4.583000000    -2.844000000    -4.759000000
H     3.951000000    -1.664000000    -5.466000000
O     0.745000000    -4.858000000    -1.898000000
H     0.293000000    -4.023000000    -1.772000000
H     0.111000000    -5.406000000    -2.359000000
O     5.069000000    -4.465000000    -0.144000000
H     5.265000000    -5.079000000    -0.853000000
H     4.908000000    -3.632000000    -0.587000000
O     8.539000000    -2.739000000    -1.316000000
H     9.036000000    -2.001000000    -1.669000000
H     9.175000000    -3.452000000    -1.258000000
O     7.673000000    -3.775000000     1.031000000
H     6.725000000    -3.815000000     0.908000000
H     7.953000000    -3.033000000     0.495000000
O     1.844000000    -3.326000000    -8.352000000
H     2.174000000    -3.322000000    -7.453000000
H     1.337000000    -4.135000000    -8.417000000
O     5.793000000    -8.851000000    -0.466000000
H     6.746000000    -8.858000000    -0.554000000
H     5.527000000    -7.999000000    -0.813000000
O     6.540000000    -2.942000000    -3.156000000
H     5.669000000    -3.012000000    -2.766000000
H     7.141000000    -3.102000000    -2.428000000
O     8.003000000    -1.036000000    -4.681000000
H     8.083000000    -0.090000000    -4.566000000
H     7.318000000    -1.295000000    -4.064000000
O     3.037000000    -6.122000000    -6.959000000
H     2.191000000    -6.467000000    -7.246000000
H     2.849000000    -5.225000000    -6.683000000
O     6.755000000    -1.656000000    -7.226000000
H     7.339000000    -1.488000000    -6.487000000
H     5.884000000    -1.722000000    -6.834000000
O     3.917000000    -7.621000000    -4.854000000
H     3.651000000    -7.303000000    -5.717000000
H     3.622000000    -6.942000000    -4.247000000
O     2.441000000    -4.971000000     1.170000000
H     2.036000000    -4.976000000     0.303000000
H     3.333000000    -4.660000000     1.016000000
O     1.760000000    -7.493000000     2.161000000
H     1.873000000    -7.833000000     1.273000000
H     2.082000000    -6.593000000     2.117000000
