215
-1460.02392
C    -5.248000000    -2.005000000    -0.749000000
H    -5.634000000    -1.320000000    -1.500000000
C    -4.510000000    -1.543000000     0.381000000
C    -4.081000000    -2.506000000     1.272000000
H    -3.652000000    -2.125000000     2.196000000
C    -4.141000000    -0.039000000     0.640000000
O    -4.998000000     0.911000000    -0.136000000
H    -3.120000000     0.210000000     0.315000000
O    -4.429000000     0.224000000     2.003000000
C    -3.475000000     1.031000000     2.664000000
C    -2.492000000     0.404000000     3.370000000
H    -2.389000000    -0.675000000     3.451000000
C    -1.397000000     1.076000000     3.958000000
O    -0.416000000     0.386000000     4.666000000
C    -1.305000000     2.460000000     3.715000000
C    -0.219000000     3.236000000     4.316000000
H    -0.529000000     4.269000000     4.487000000
C     1.015000000     3.210000000     3.443000000
C     1.157000000     4.310000000     2.491000000
H     0.452000000     5.134000000     2.418000000
H     0.001000000     2.821000000     5.302000000
C    -2.301000000     3.115000000     3.021000000
H    -2.154000000     4.171000000     2.810000000
C    -3.393000000     2.423000000     2.460000000
C    -4.313000000     3.158000000     1.534000000
H    -4.335000000     4.221000000     1.784000000
H    -5.353000000     2.913000000     1.757000000
C    -3.988000000     3.054000000     0.048000000
C    -3.134000000     4.005000000    -0.507000000
H    -2.729000000     4.773000000     0.146000000
C    -4.364000000     1.983000000    -0.659000000
C    -3.993000000     1.835000000    -1.961000000
H    -4.353000000     1.113000000    -2.690000000
C    -3.331000000     2.841000000    -2.608000000
O    -2.733000000     2.469000000    -3.756000000
C    -1.465000000     1.848000000    -3.634000000
C    -1.263000000     0.445000000    -4.189000000
C     0.020000000    -0.042000000    -4.057000000
H     0.760000000     0.593000000    -3.578000000
C    -2.306000000    -0.283000000    -4.728000000
H    -3.308000000     0.133000000    -4.795000000
O    -0.366000000     2.748000000    -4.026000000
H    -1.352000000     1.720000000    -2.547000000
C    -2.806000000     3.865000000    -1.883000000
C    -1.844000000     4.834000000    -2.494000000
H    -2.197000000     5.787000000    -2.095000000
H    -2.081000000     4.929000000    -3.556000000
C    -0.435000000     4.365000000    -2.122000000
C     0.276000000     4.965000000    -1.051000000
H    -0.135000000     5.736000000    -0.404000000
C     0.252000000     3.450000000    -2.979000000
C     1.634000000     3.218000000    -2.851000000
H     2.172000000     2.502000000    -3.467000000
C     2.295000000     3.824000000    -1.733000000
O     3.608000000     3.361000000    -1.564000000
C     3.805000000     2.402000000    -0.493000000
C     4.820000000     1.283000000    -0.842000000
C     5.173000000     0.944000000    -2.123000000
H     4.680000000     1.414000000    -2.970000000
C     5.596000000     0.715000000     0.162000000
H     5.499000000     1.070000000     1.185000000
O     4.169000000     3.112000000     0.696000000
H     2.891000000     1.820000000    -0.308000000
C     1.637000000     4.626000000    -0.834000000
C     2.266000000     5.219000000     0.398000000
H     1.753000000     6.137000000     0.692000000
H     3.298000000     5.485000000     0.158000000
C     2.212000000     4.211000000     1.547000000
C     3.202000000     3.207000000     1.670000000
C     3.092000000     2.146000000     2.601000000
H     3.795000000     1.317000000     2.634000000
C     1.943000000     2.133000000     3.383000000
O     1.809000000     1.107000000     4.287000000
C     0.798000000     0.087000000     3.917000000
H     0.519000000     0.114000000     2.854000000
C     1.282000000    -1.373000000     4.114000000
C     0.431000000    -2.416000000     4.376000000
H    -0.639000000    -2.226000000     4.384000000
C     2.673000000    -1.672000000     3.921000000
H     3.353000000    -0.895000000     3.581000000
C     3.151000000    -2.962000000     4.192000000
O     4.424000000    -3.283000000     3.855000000
C     2.244000000    -3.977000000     4.507000000
H     2.605000000    -4.992000000     4.653000000
C     0.828000000    -3.743000000     4.558000000
O     0.033000000    -4.700000000     5.006000000
C    -1.346000000    -4.576000000     4.790000000
C    -1.789000000    -4.695000000     3.499000000
H    -1.143000000    -4.850000000     2.639000000
C    -2.258000000    -4.444000000     5.753000000
H    -1.889000000    -4.475000000     6.775000000
C    -3.601000000    -4.233000000     5.447000000
H    -4.288000000    -4.143000000     6.285000000
C    -4.021000000    -4.249000000     4.122000000
H    -5.029000000    -4.092000000     3.746000000
C    -3.126000000    -4.550000000     3.138000000
O    -3.560000000    -4.760000000     1.839000000
C    -4.164000000    -3.825000000     1.028000000
C    -4.933000000    -4.243000000    -0.051000000
H    -4.807000000    -5.280000000    -0.351000000
C    -5.406000000    -3.364000000    -0.956000000
O    -6.078000000    -3.796000000    -2.060000000
C    -5.786000000    -3.303000000    -3.346000000
C    -4.495000000    -3.202000000    -3.816000000
H    -3.690000000    -3.656000000    -3.244000000
C    -6.896000000    -2.840000000    -4.078000000
H    -7.887000000    -2.903000000    -3.635000000
C    -6.720000000    -2.404000000    -5.386000000
H    -7.473000000    -2.006000000    -6.062000000
C    -5.376000000    -2.114000000    -5.810000000
H    -5.225000000    -1.635000000    -6.774000000
C    -4.288000000    -2.572000000    -5.097000000
O    -2.972000000    -2.510000000    -5.569000000
C    -2.060000000    -1.562000000    -5.111000000
C    -0.750000000    -2.085000000    -4.991000000
H    -0.768000000    -3.171000000    -5.022000000
C     0.314000000    -1.304000000    -4.540000000
O     1.522000000    -1.927000000    -4.168000000
C     2.637000000    -1.409000000    -4.721000000
C     3.814000000    -1.365000000    -4.021000000
H     3.791000000    -1.848000000    -3.047000000
C     2.537000000    -0.804000000    -5.978000000
H     1.623000000    -0.749000000    -6.565000000
C     3.660000000    -0.224000000    -6.528000000
H     3.664000000     0.079000000    -7.572000000
C     4.865000000    -0.165000000    -5.807000000
H     5.683000000     0.390000000    -6.259000000
C     4.969000000    -0.678000000    -4.497000000
O     6.080000000    -0.573000000    -3.716000000
C     6.082000000    -0.039000000    -2.430000000
C     6.812000000    -0.630000000    -1.407000000
H     7.450000000    -1.470000000    -1.669000000
C     6.560000000    -0.255000000    -0.123000000
O     7.277000000    -0.895000000     0.862000000
C     6.820000000    -1.183000000     2.183000000
C     7.757000000    -0.928000000     3.236000000
H     8.571000000    -0.228000000     3.064000000
C     7.456000000    -1.410000000     4.514000000
H     8.224000000    -1.241000000     5.266000000
C     6.341000000    -2.209000000     4.754000000
H     6.179000000    -2.632000000     5.742000000
C     5.449000000    -2.436000000     3.676000000
C     5.691000000    -1.952000000     2.383000000
H     5.076000000    -2.199000000     1.522000000
C     1.406000000    -0.943000000     0.043000000
H     2.361000000    -1.129000000     0.528000000
C     0.747000000     0.348000000     0.157000000
H     1.179000000     1.192000000     0.688000000
C    -0.465000000     0.621000000    -0.408000000
H    -0.791000000     1.568000000    -0.243000000
C    -1.091000000    -0.416000000    -1.106000000
H    -2.062000000    -0.311000000    -1.583000000
C    -0.504000000    -1.671000000    -1.137000000
H    -1.001000000    -2.592000000    -1.429000000
C     0.790000000    -1.950000000    -0.617000000
C     1.494000000    -3.287000000    -0.765000000
O     0.940000000    -4.256000000    -1.179000000
O     2.644000000    -3.254000000    -0.494000000
O     5.888000000    -4.392000000    -3.459000000
H     5.186000000    -3.827000000    -3.782000000
H     5.508000000    -5.271000000    -3.465000000
O    -2.270000000    -8.722000000    -1.706000000
H    -2.532000000    -7.964000000    -1.182000000
H    -3.046000000    -9.281000000    -1.722000000
O     1.648000000    -7.614000000     4.471000000
H     1.039000000    -8.349000000     4.535000000
H     1.371000000    -7.141000000     3.686000000
O    -2.394000000    -6.160000000    -5.424000000
H    -1.641000000    -5.922000000    -4.884000000
H    -2.224000000    -5.745000000    -6.270000000
O     5.113000000    -6.965000000    -2.890000000
H     4.343000000    -6.591000000    -2.462000000
H     5.252000000    -7.801000000    -2.444000000
O     5.285000000    -3.730000000    -0.657000000
H     5.524000000    -3.756000000    -1.583000000
H     4.341000000    -3.572000000    -0.657000000
O     3.189000000    -5.777000000    -1.373000000
H     2.513000000    -5.110000000    -1.495000000
H     3.406000000    -5.729000000    -0.442000000
O    -2.407000000    -7.937000000     1.174000000
H    -2.102000000    -7.030000000     1.200000000
H    -1.696000000    -8.416000000     0.748000000
O    -0.443000000    -5.146000000    -3.360000000
H    -0.276000000    -4.773000000    -2.495000000
H     0.267000000    -5.776000000    -3.490000000
O     4.240000000    -7.104000000     1.480000000
H     3.769000000    -6.270000000     1.460000000
H     5.161000000    -6.860000000     1.389000000
O     1.460000000    -7.772000000    -0.797000000
H     1.833000000    -8.641000000    -0.949000000
H     2.102000000    -7.168000000    -1.170000000
O     2.803000000    -4.681000000    -4.314000000
H     2.479000000    -5.492000000    -3.923000000
H     2.144000000    -4.025000000    -4.087000000
O     1.018000000    -6.770000000     1.840000000
H     1.465000000    -5.937000000     1.689000000
H     1.344000000    -7.345000000     1.147000000
O     7.787000000    -3.702000000     0.428000000
H     7.824000000    -2.774000000     0.658000000
H     6.882000000    -3.845000000     0.152000000
O     3.073000000    -4.771000000     1.578000000
H     2.948000000    -4.090000000     0.918000000
H     3.453000000    -4.312000000     2.327000000
O     1.327000000    -7.278000000    -3.981000000
H     1.860000000    -7.614000000    -4.702000000
H     0.856000000    -8.045000000    -3.655000000
O     3.633000000    -5.198000000    -6.733000000
H     3.211000000    -4.798000000    -5.973000000
H     4.472000000    -4.742000000    -6.809000000
O    -2.909000000    -5.837000000    -2.148000000
H    -2.311000000    -5.645000000    -2.871000000
H    -2.337000000    -5.966000000    -1.392000000
O    -0.953000000    -6.073000000    -0.358000000
H    -0.355000000    -5.394000000    -0.670000000
H    -0.385000000    -6.815000000    -0.151000000
