215
-1460.72228
C    -3.608000000    -2.866000000     0.060000000
H    -3.714000000    -2.301000000    -0.862000000
C    -3.830000000    -2.225000000     1.262000000
C    -3.688000000    -2.974000000     2.429000000
H    -3.790000000    -2.510000000     3.407000000
C    -3.981000000    -0.719000000     1.230000000
O    -4.729000000    -0.215000000     0.118000000
H    -2.982000000    -0.261000000     1.174000000
O    -4.598000000    -0.340000000     2.474000000
C    -3.962000000     0.696000000     3.125000000
C    -2.966000000     0.265000000     3.961000000
H    -2.722000000    -0.762000000     4.218000000
C    -1.901000000     1.068000000     4.275000000
O    -0.786000000     0.506000000     4.832000000
C    -1.872000000     2.361000000     3.823000000
C    -0.764000000     3.323000000     4.181000000
H    -1.204000000     4.318000000     4.274000000
C     0.417000000     3.346000000     3.148000000
C     0.553000000     4.391000000     2.231000000
H    -0.030000000     5.308000000     2.261000000
H    -0.425000000     3.181000000     5.209000000
C    -2.926000000     2.862000000     3.010000000
H    -2.782000000     3.839000000     2.556000000
C    -3.948000000     2.033000000     2.622000000
C    -4.913000000     2.501000000     1.487000000
H    -5.016000000     3.588000000     1.456000000
H    -5.941000000     2.149000000     1.598000000
C    -4.226000000     2.235000000     0.154000000
C    -3.604000000     3.305000000    -0.563000000
H    -3.292000000     4.242000000    -0.110000000
C    -4.302000000     0.973000000    -0.465000000
C    -3.843000000     0.772000000    -1.747000000
H    -4.035000000    -0.136000000    -2.312000000
C    -3.263000000     1.812000000    -2.420000000
O    -2.677000000     1.588000000    -3.672000000
C    -1.270000000     1.568000000    -3.771000000
C    -0.824000000     0.336000000    -4.672000000
C     0.314000000     0.386000000    -5.520000000
H     0.852000000     1.330000000    -5.503000000
C    -1.595000000    -0.779000000    -4.688000000
H    -2.528000000    -0.791000000    -4.130000000
O    -0.686000000     2.785000000    -4.368000000
H    -0.838000000     1.410000000    -2.772000000
C    -3.114000000     3.112000000    -1.842000000
C    -2.464000000     4.287000000    -2.602000000
H    -2.773000000     5.275000000    -2.252000000
H    -2.791000000     4.188000000    -3.639000000
C    -0.950000000     4.343000000    -2.481000000
C    -0.347000000     5.029000000    -1.397000000
H    -0.967000000     5.592000000    -0.704000000
C    -0.125000000     3.677000000    -3.458000000
C     1.190000000     3.559000000    -3.178000000
H     1.770000000     3.010000000    -3.916000000
C     1.771000000     4.177000000    -2.048000000
O     3.086000000     3.790000000    -1.847000000
C     3.285000000     2.726000000    -0.915000000
C     4.252000000     1.582000000    -1.270000000
C     4.557000000     1.455000000    -2.626000000
H     4.159000000     2.079000000    -3.422000000
C     4.723000000     0.685000000    -0.360000000
H     4.372000000     0.661000000     0.668000000
O     3.528000000     3.373000000     0.429000000
H     2.298000000     2.244000000    -0.864000000
C     0.999000000     4.876000000    -1.186000000
C     1.592000000     5.419000000     0.159000000
H     1.073000000     6.351000000     0.391000000
H     2.649000000     5.656000000     0.024000000
C     1.524000000     4.335000000     1.239000000
C     2.477000000     3.333000000     1.279000000
C     2.396000000     2.337000000     2.187000000
H     3.214000000     1.633000000     2.314000000
C     1.366000000     2.365000000     3.139000000
O     1.368000000     1.316000000     3.972000000
C     0.350000000     0.290000000     3.939000000
H     0.001000000     0.199000000     2.900000000
C     0.995000000    -1.095000000     4.303000000
C     0.342000000    -2.121000000     4.929000000
H    -0.720000000    -2.064000000     5.151000000
C     2.354000000    -1.354000000     4.095000000
H     2.924000000    -0.484000000     3.779000000
C     2.948000000    -2.536000000     4.542000000
O     4.288000000    -2.859000000     4.263000000
C     2.191000000    -3.541000000     5.185000000
H     2.615000000    -4.485000000     5.516000000
C     0.859000000    -3.355000000     5.373000000
O     0.117000000    -4.254000000     6.084000000
C    -1.296000000    -4.441000000     6.001000000
C    -1.890000000    -4.905000000     4.854000000
H    -1.208000000    -5.210000000     4.066000000
C    -2.046000000    -4.029000000     7.043000000
H    -1.510000000    -3.714000000     7.935000000
C    -3.458000000    -3.875000000     6.932000000
H    -4.064000000    -3.385000000     7.689000000
C    -4.065000000    -4.288000000     5.729000000
H    -5.130000000    -4.200000000     5.527000000
C    -3.289000000    -4.780000000     4.709000000
O    -3.850000000    -5.078000000     3.498000000
C    -3.591000000    -4.317000000     2.361000000
C    -3.303000000    -4.962000000     1.177000000
H    -3.102000000    -6.027000000     1.091000000
C    -3.380000000    -4.209000000     0.015000000
O    -3.124000000    -4.862000000    -1.169000000
C    -3.519000000    -4.257000000    -2.348000000
C    -2.565000000    -3.953000000    -3.344000000
H    -1.503000000    -4.123000000    -3.186000000
C    -4.839000000    -4.195000000    -2.668000000
H    -5.684000000    -4.348000000    -2.001000000
C    -5.257000000    -3.713000000    -3.892000000
H    -6.336000000    -3.714000000    -4.029000000
C    -4.354000000    -3.404000000    -4.912000000
H    -4.752000000    -3.165000000    -5.895000000
C    -2.969000000    -3.413000000    -4.569000000
O    -1.950000000    -3.076000000    -5.556000000
C    -1.255000000    -1.867000000    -5.507000000
C    -0.108000000    -1.849000000    -6.352000000
H     0.202000000    -2.759000000    -6.859000000
C     0.646000000    -0.698000000    -6.325000000
O     1.817000000    -0.668000000    -7.021000000
C     2.925000000     0.101000000    -6.827000000
C     3.768000000    -0.245000000    -5.737000000
H     3.486000000    -0.951000000    -4.960000000
C     3.345000000     1.114000000    -7.733000000
H     2.745000000     1.296000000    -8.621000000
C     4.604000000     1.634000000    -7.557000000
H     4.950000000     2.300000000    -8.344000000
C     5.406000000     1.275000000    -6.468000000
H     6.387000000     1.685000000    -6.238000000
C     4.987000000     0.390000000    -5.492000000
O     5.778000000     0.153000000    -4.384000000
C     5.403000000     0.413000000    -3.044000000
C     6.044000000    -0.405000000    -2.158000000
H     6.717000000    -1.187000000    -2.501000000
C     5.557000000    -0.332000000    -0.807000000
O     6.102000000    -1.294000000     0.049000000
C     6.045000000    -1.367000000     1.397000000
C     6.847000000    -0.469000000     2.083000000
H     7.562000000     0.216000000     1.633000000
C     6.730000000    -0.306000000     3.452000000
H     7.402000000     0.428000000     3.889000000
C     5.854000000    -1.173000000     4.160000000
H     5.713000000    -1.091000000     5.235000000
C     5.057000000    -2.047000000     3.478000000
C     5.171000000    -2.163000000     2.093000000
H     4.627000000    -2.901000000     1.510000000
C     2.132000000    -1.762000000    -0.147000000
H     3.121000000    -2.139000000     0.099000000
C     1.649000000    -0.508000000     0.266000000
H     2.228000000     0.128000000     0.930000000
C     0.481000000     0.012000000    -0.263000000
H     0.177000000     1.018000000    -0.070000000
C    -0.362000000    -0.743000000    -1.057000000
H    -1.341000000    -0.373000000    -1.350000000
C     0.007000000    -2.033000000    -1.401000000
H    -0.612000000    -2.549000000    -2.131000000
C     1.241000000    -2.513000000    -1.008000000
C     1.653000000    -3.823000000    -1.562000000
O     0.922000000    -4.469000000    -2.274000000
O     2.804000000    -4.175000000    -1.433000000
O     7.782000000    -3.544000000    -1.281000000
H     7.711000000    -3.994000000    -2.122000000
H     6.884000000    -3.287000000    -1.070000000
O     1.202000000    -4.870000000    -7.638000000
H     1.986000000    -4.342000000    -7.786000000
H     1.046000000    -4.810000000    -6.696000000
O     0.259000000    -6.959000000    -1.748000000
H     0.423000000    -6.018000000    -1.814000000
H     1.098000000    -7.365000000    -1.964000000
O     5.346000000    -4.547000000    -0.977000000
H     4.410000000    -4.349000000    -0.994000000
H     5.419000000    -5.397000000    -1.411000000
O     3.147000000    -6.767000000    -2.375000000
H     2.762000000    -5.917000000    -2.161000000
H     3.605000000    -6.620000000    -3.202000000
O     3.392000000    -8.298000000     0.230000000
H     2.764000000    -8.658000000     0.856000000
H     2.854000000    -7.995000000    -0.501000000
O    -1.388000000    -6.895000000    -4.381000000
H    -0.771000000    -6.740000000    -3.665000000
H    -0.948000000    -6.542000000    -5.155000000
O     4.261000000    -8.341000000    -4.861000000
H     3.410000000    -8.061000000    -5.198000000
H     4.122000000    -9.246000000    -4.581000000
O     5.905000000    -7.012000000    -2.359000000
H     5.508000000    -7.287000000    -3.185000000
H     5.495000000    -7.570000000    -1.698000000
O    -0.420000000    -4.022000000     1.922000000
H    -0.951000000    -3.939000000     1.131000000
H    -0.599000000    -4.906000000     2.240000000
O     3.272000000    -3.240000000    -6.537000000
H     3.567000000    -2.515000000    -7.088000000
H     3.520000000    -2.981000000    -5.649000000
O     1.425000000    -6.360000000     3.225000000
H     1.839000000    -5.612000000     2.794000000
H     0.865000000    -6.745000000     2.552000000
O     4.786000000    -6.283000000     2.169000000
H     4.304000000    -5.457000000     2.215000000
H     4.198000000    -6.877000000     1.703000000
O    -1.344000000    -8.936000000    -0.873000000
H    -0.923000000    -8.158000000    -1.238000000
H    -2.200000000    -8.968000000    -1.300000000
O     1.925000000    -7.475000000    -5.709000000
H     1.347000000    -7.552000000    -6.468000000
H     1.870000000    -6.552000000    -5.459000000
O     1.474000000    -5.113000000    -4.821000000
H     2.259000000    -4.597000000    -5.005000000
H     1.284000000    -4.939000000    -3.899000000
O    -0.702000000    -7.269000000     1.642000000
H    -1.284000000    -7.988000000     1.887000000
H    -1.003000000    -7.002000000     0.773000000
O     4.051000000    -3.305000000    -3.815000000
H     3.631000000    -3.500000000    -2.977000000
H     4.949000000    -3.620000000    -3.712000000
O     2.588000000    -4.502000000     1.568000000
H     2.714000000    -4.491000000     0.619000000
H     1.745000000    -4.068000000     1.702000000
