215
-1453.28247
C    -4.591000000    -2.407000000    -0.631000000
H    -4.857000000    -1.704000000    -1.417000000
C    -4.300000000    -2.003000000     0.647000000
C    -3.929000000    -2.982000000     1.631000000
H    -3.562000000    -2.747000000     2.627000000
C    -4.096000000    -0.493000000     1.009000000
O    -4.847000000     0.314000000     0.052000000
H    -3.005000000    -0.404000000     0.909000000
O    -4.561000000    -0.159000000     2.337000000
C    -3.826000000     0.835000000     3.036000000
C    -2.895000000     0.433000000     4.001000000
H    -2.902000000    -0.611000000     4.306000000
C    -1.897000000     1.225000000     4.452000000
O    -0.938000000     0.554000000     5.074000000
C    -1.777000000     2.528000000     3.962000000
C    -0.622000000     3.422000000     4.414000000
H    -0.982000000     4.449000000     4.506000000
C     0.596000000     3.279000000     3.495000000
C     0.771000000     4.202000000     2.467000000
H     0.198000000     5.125000000     2.444000000
H    -0.187000000     2.983000000     5.314000000
C    -2.624000000     2.996000000     2.962000000
H    -2.500000000     4.001000000     2.566000000
C    -3.692000000     2.148000000     2.545000000
C    -4.566000000     2.721000000     1.427000000
H    -4.847000000     3.755000000     1.637000000
H    -5.528000000     2.206000000     1.398000000
C    -3.898000000     2.490000000     0.083000000
C    -3.242000000     3.520000000    -0.592000000
H    -3.147000000     4.442000000    -0.025000000
C    -4.166000000     1.310000000    -0.611000000
C    -3.629000000     1.107000000    -1.889000000
H    -4.020000000     0.267000000    -2.457000000
C    -3.017000000     2.212000000    -2.595000000
O    -2.555000000     1.944000000    -3.894000000
C    -1.127000000     1.694000000    -4.019000000
C    -0.805000000     0.551000000    -4.914000000
C     0.486000000     0.411000000    -5.492000000
H     1.247000000     1.174000000    -5.345000000
C    -1.748000000    -0.458000000    -5.097000000
H    -2.744000000    -0.360000000    -4.674000000
O    -0.346000000     2.963000000    -4.212000000
H    -0.802000000     1.308000000    -3.041000000
C    -2.824000000     3.404000000    -1.929000000
C    -2.034000000     4.524000000    -2.540000000
H    -2.433000000     5.456000000    -2.134000000
H    -2.089000000     4.592000000    -3.628000000
C    -0.599000000     4.334000000    -2.217000000
C    -0.027000000     4.840000000    -1.031000000
H    -0.603000000     5.378000000    -0.283000000
C     0.202000000     3.413000000    -3.015000000
C     1.497000000     3.117000000    -2.743000000
H     2.020000000     2.521000000    -3.487000000
C     2.087000000     3.589000000    -1.554000000
O     3.324000000     3.161000000    -1.236000000
C     3.430000000     2.161000000    -0.223000000
C     4.525000000     1.101000000    -0.659000000
C     4.648000000     0.769000000    -1.947000000
H     3.927000000     1.108000000    -2.687000000
C     5.349000000     0.511000000     0.338000000
H     5.056000000     0.732000000     1.361000000
O     3.829000000     2.781000000     0.996000000
H     2.473000000     1.646000000    -0.055000000
C     1.351000000     4.503000000    -0.783000000
C     2.068000000     5.083000000     0.468000000
H     1.655000000     6.028000000     0.829000000
H     3.130000000     5.176000000     0.234000000
C     1.832000000     4.055000000     1.591000000
C     2.801000000     3.050000000     1.775000000
C     2.648000000     2.208000000     2.813000000
H     3.267000000     1.316000000     2.851000000
C     1.484000000     2.236000000     3.601000000
O     1.278000000     1.184000000     4.479000000
C     0.221000000     0.206000000     4.231000000
H     0.001000000     0.282000000     3.156000000
C     0.764000000    -1.221000000     4.434000000
C    -0.020000000    -2.245000000     5.013000000
H    -1.023000000    -2.066000000     5.392000000
C     2.122000000    -1.530000000     4.104000000
H     2.759000000    -0.745000000     3.706000000
C     2.657000000    -2.794000000     4.324000000
O     3.917000000    -3.061000000     3.930000000
C     1.809000000    -3.792000000     4.813000000
H     2.127000000    -4.827000000     4.900000000
C     0.436000000    -3.544000000     5.071000000
O    -0.317000000    -4.579000000     5.566000000
C    -1.587000000    -4.592000000     5.240000000
C    -1.871000000    -4.963000000     3.953000000
H    -1.041000000    -5.066000000     3.259000000
C    -2.597000000    -4.475000000     6.198000000
H    -2.430000000    -4.334000000     7.262000000
C    -3.907000000    -4.677000000     5.727000000
H    -4.756000000    -4.392000000     6.344000000
C    -4.207000000    -4.975000000     4.444000000
H    -5.209000000    -4.965000000     4.023000000
C    -3.195000000    -5.196000000     3.540000000
O    -3.539000000    -5.388000000     2.225000000
C    -3.974000000    -4.348000000     1.342000000
C    -4.376000000    -4.697000000     0.060000000
H    -4.322000000    -5.736000000    -0.256000000
C    -4.630000000    -3.737000000    -0.934000000
O    -5.158000000    -4.074000000    -2.142000000
C    -4.964000000    -3.328000000    -3.318000000
C    -3.656000000    -3.378000000    -3.839000000
H    -2.943000000    -4.011000000    -3.316000000
C    -5.982000000    -2.657000000    -3.926000000
H    -7.025000000    -2.636000000    -3.623000000
C    -5.707000000    -1.935000000    -5.060000000
H    -6.395000000    -1.272000000    -5.577000000
C    -4.431000000    -1.968000000    -5.628000000
H    -4.222000000    -1.371000000    -6.513000000
C    -3.455000000    -2.685000000    -5.057000000
O    -2.241000000    -2.758000000    -5.738000000
C    -1.379000000    -1.650000000    -5.711000000
C    -0.116000000    -1.768000000    -6.213000000
H     0.153000000    -2.675000000    -6.748000000
C     0.853000000    -0.809000000    -6.126000000
O     2.101000000    -1.156000000    -6.454000000
C     3.291000000    -0.472000000    -6.130000000
C     4.004000000    -0.652000000    -4.948000000
H     3.605000000    -1.221000000    -4.113000000
C     3.853000000     0.309000000    -7.070000000
H     3.245000000     0.502000000    -7.949000000
C     5.081000000     0.980000000    -6.928000000
H     5.582000000     1.620000000    -7.650000000
C     5.780000000     0.854000000    -5.742000000
H     6.725000000     1.359000000    -5.561000000
C     5.249000000     0.031000000    -4.776000000
O     6.060000000    -0.217000000    -3.711000000
C     5.766000000     0.032000000    -2.411000000
C     6.658000000    -0.495000000    -1.417000000
H     7.613000000    -0.942000000    -1.682000000
C     6.381000000    -0.318000000    -0.063000000
O     7.089000000    -1.095000000     0.864000000
C     6.562000000    -1.258000000     2.111000000
C     7.096000000    -0.444000000     3.112000000
H     7.976000000     0.167000000     2.930000000
C     6.569000000    -0.483000000     4.448000000
H     6.999000000     0.216000000     5.161000000
C     5.435000000    -1.262000000     4.653000000
H     5.038000000    -1.322000000     5.663000000
C     4.885000000    -2.045000000     3.632000000
C     5.445000000    -2.026000000     2.368000000
H     4.936000000    -2.514000000     1.540000000
C     1.820000000    -1.802000000    -0.159000000
H     2.748000000    -2.287000000     0.133000000
C     1.318000000    -0.717000000     0.536000000
H     1.737000000    -0.257000000     1.427000000
C     0.071000000    -0.242000000     0.187000000
H    -0.449000000     0.564000000     0.680000000
C    -0.676000000    -0.883000000    -0.797000000
H    -1.666000000    -0.509000000    -1.044000000
C    -0.164000000    -1.969000000    -1.474000000
H    -0.761000000    -2.434000000    -2.255000000
C     1.111000000    -2.431000000    -1.214000000
C     1.640000000    -3.762000000    -1.813000000
O     1.043000000    -4.283000000    -2.750000000
O     2.675000000    -4.279000000    -1.413000000
O    -2.466000000    -7.017000000    -4.303000000
H    -2.679000000    -7.110000000    -3.374000000
H    -1.578000000    -6.659000000    -4.310000000
O     5.453000000    -4.991000000     1.113000000
H     6.120000000    -4.623000000     1.693000000
H     5.677000000    -5.919000000     1.049000000
O     5.905000000    -6.575000000    -5.377000000
H     6.431000000    -6.977000000    -4.686000000
H     5.099000000    -7.091000000    -5.396000000
O     2.002000000    -7.138000000    -7.885000000
H     2.236000000    -6.951000000    -6.976000000
H     1.661000000    -8.032000000    -7.865000000
O    -0.314000000    -8.330000000    -1.533000000
H    -0.738000000    -7.475000000    -1.471000000
H     0.604000000    -8.158000000    -1.322000000
O     5.335000000    -3.962000000    -1.532000000
H     4.392000000    -3.863000000    -1.664000000
H     5.428000000    -4.158000000    -0.600000000
O     2.066000000    -6.525000000    -3.559000000
H     2.027000000    -5.714000000    -3.051000000
H     1.246000000    -6.538000000    -4.052000000
O     3.390000000    -8.465000000    -2.062000000
H     3.145000000    -7.815000000    -2.721000000
H     2.983000000    -8.152000000    -1.254000000
O     3.508000000    -7.873000000    -5.374000000
H     2.797000000    -8.501000000    -5.499000000
H     3.349000000    -7.501000000    -4.507000000
O     5.455000000    -7.646000000     0.948000000
H     5.160000000    -8.383000000     1.482000000
H     4.715000000    -7.455000000     0.372000000
O    -0.715000000    -5.516000000    -1.130000000
H    -0.134000000    -5.043000000    -1.727000000
H    -0.447000000    -5.228000000    -0.257000000
O     4.349000000    -4.273000000    -5.978000000
H     3.997000000    -4.176000000    -6.863000000
H     4.839000000    -5.095000000    -6.004000000
O     2.369000000    -7.524000000     0.216000000
H     2.124000000    -8.083000000     0.953000000
H     2.462000000    -6.651000000     0.597000000
O     0.424000000    -7.068000000     2.356000000
H     0.735000000    -6.166000000     2.283000000
H    -0.503000000    -7.022000000     2.123000000
O     2.834000000    -4.994000000     1.173000000
H     2.710000000    -4.788000000     0.246000000
H     3.746000000    -4.762000000     1.350000000
O    -1.460000000    -5.362000000    -7.400000000
H    -0.865000000    -5.355000000    -6.650000000
H    -1.506000000    -4.447000000    -7.678000000
O     0.444000000    -5.068000000    -5.300000000
H     1.209000000    -4.576000000    -5.600000000
H     0.238000000    -4.693000000    -4.444000000
O     6.531000000    -3.525000000    -4.027000000
H     5.848000000    -3.909000000    -4.577000000
H     6.196000000    -3.612000000    -3.134000000
O     0.111000000    -4.009000000     1.407000000
H     0.126000000    -3.130000000     1.029000000
H     1.033000000    -4.230000000     1.538000000
