215
-1466.18851
C     3.353000000     1.829000000    -3.348000000
H     3.364000000     0.775000000    -3.613000000
C     3.649000000     2.061000000    -1.973000000
C     3.582000000     3.322000000    -1.431000000
H     3.783000000     3.525000000    -0.382000000
C     3.923000000     0.877000000    -1.020000000
O     4.417000000    -0.254000000    -1.788000000
H     2.933000000     0.694000000    -0.577000000
O     4.765000000     1.233000000     0.048000000
C     4.518000000     0.673000000     1.296000000
C     3.840000000     1.525000000     2.187000000
H     3.769000000     2.582000000     1.942000000
C     3.132000000     1.027000000     3.325000000
O     2.358000000     1.966000000     4.007000000
C     3.166000000    -0.367000000     3.595000000
C     2.467000000    -0.873000000     4.853000000
H     3.022000000    -1.740000000     5.218000000
C     1.005000000    -1.133000000     4.538000000
C     0.666000000    -2.450000000     4.134000000
H     1.467000000    -3.176000000     4.023000000
H     2.634000000    -0.150000000     5.654000000
C     3.859000000    -1.225000000     2.726000000
H     3.873000000    -2.281000000     2.985000000
C     4.537000000    -0.713000000     1.623000000
C     5.290000000    -1.675000000     0.733000000
H     5.642000000    -2.509000000     1.344000000
H     6.053000000    -1.268000000     0.065000000
C     4.214000000    -2.223000000    -0.215000000
C     3.569000000    -3.505000000     0.047000000
H     3.822000000    -4.099000000     0.921000000
C     3.930000000    -1.551000000    -1.415000000
C     2.988000000    -2.074000000    -2.323000000
H     2.778000000    -1.452000000    -3.189000000
C     2.372000000    -3.287000000    -2.085000000
O     1.403000000    -3.728000000    -3.006000000
C     0.077000000    -3.339000000    -2.687000000
C    -0.564000000    -2.774000000    -3.956000000
C    -1.978000000    -2.554000000    -3.930000000
H    -2.471000000    -3.000000000    -3.070000000
C     0.171000000    -2.315000000    -5.047000000
H     1.238000000    -2.513000000    -5.103000000
O    -0.550000000    -4.544000000    -2.221000000
H     0.153000000    -2.632000000    -1.848000000
C     2.666000000    -4.001000000    -0.901000000
C     1.966000000    -5.334000000    -0.638000000
H     2.529000000    -5.947000000     0.068000000
H     1.830000000    -5.933000000    -1.541000000
C     0.549000000    -5.064000000    -0.065000000
C     0.377000000    -4.997000000     1.345000000
H     1.233000000    -5.298000000     1.944000000
C    -0.544000000    -4.682000000    -0.846000000
C    -1.683000000    -4.219000000    -0.249000000
H    -2.541000000    -4.005000000    -0.881000000
C    -1.858000000    -4.209000000     1.129000000
O    -3.024000000    -3.670000000     1.639000000
C    -3.123000000    -2.188000000     2.123000000
C    -4.383000000    -1.440000000     1.751000000
C    -5.076000000    -1.864000000     0.605000000
H    -4.734000000    -2.738000000     0.057000000
C    -4.734000000    -0.296000000     2.473000000
H    -4.053000000     0.112000000     3.216000000
O    -2.871000000    -2.257000000     3.572000000
H    -2.395000000    -1.589000000     1.555000000
C    -0.760000000    -4.512000000     1.980000000
C    -0.860000000    -4.348000000     3.488000000
H    -0.214000000    -5.031000000     4.042000000
H    -1.838000000    -4.689000000     3.834000000
C    -0.636000000    -2.878000000     3.852000000
C    -1.599000000    -1.916000000     3.954000000
C    -1.325000000    -0.620000000     4.372000000
H    -2.163000000     0.070000000     4.434000000
C    -0.035000000    -0.203000000     4.681000000
O     0.196000000     1.172000000     4.741000000
C     0.916000000     1.891000000     3.747000000
H     0.685000000     1.436000000     2.772000000
C     0.311000000     3.258000000     3.665000000
C     1.102000000     4.290000000     3.190000000
H     2.139000000     4.153000000     2.896000000
C    -1.018000000     3.398000000     3.823000000
H    -1.682000000     2.579000000     4.087000000
C    -1.569000000     4.711000000     3.712000000
O    -2.921000000     4.951000000     3.868000000
C    -0.790000000     5.766000000     3.239000000
H    -1.260000000     6.713000000     2.984000000
C     0.580000000     5.573000000     3.065000000
O     1.293000000     6.551000000     2.507000000
C     2.344000000     6.306000000     1.725000000
C     2.146000000     5.942000000     0.393000000
H     1.121000000     5.948000000     0.031000000
C     3.581000000     6.621000000     2.243000000
H     3.519000000     6.983000000     3.266000000
C     4.682000000     6.567000000     1.450000000
H     5.644000000     6.824000000     1.888000000
C     4.537000000     6.025000000     0.139000000
H     5.426000000     5.778000000    -0.435000000
C     3.284000000     5.824000000    -0.421000000
O     3.142000000     5.638000000    -1.764000000
C     3.145000000     4.360000000    -2.243000000
C     2.888000000     4.122000000    -3.586000000
H     2.746000000     4.952000000    -4.273000000
C     2.899000000     2.829000000    -4.178000000
O     2.316000000     2.620000000    -5.425000000
C     2.505000000     1.416000000    -6.141000000
C     1.329000000     0.630000000    -6.098000000
H     0.447000000     1.051000000    -5.622000000
C     3.547000000     1.172000000    -7.066000000
H     4.392000000     1.824000000    -7.270000000
C     3.365000000     0.134000000    -7.980000000
H     4.192000000    -0.037000000    -8.664000000
C     2.307000000    -0.719000000    -7.919000000
H     2.222000000    -1.489000000    -8.681000000
C     1.278000000    -0.424000000    -6.984000000
O     0.198000000    -1.174000000    -7.145000000
C    -0.530000000    -1.711000000    -6.126000000
C    -1.873000000    -1.472000000    -6.041000000
H    -2.318000000    -1.067000000    -6.946000000
C    -2.624000000    -1.902000000    -4.988000000
O    -4.007000000    -1.676000000    -5.037000000
C    -4.925000000    -2.215000000    -4.153000000
C    -5.267000000    -1.500000000    -2.998000000
H    -5.044000000    -0.437000000    -2.955000000
C    -5.259000000    -3.506000000    -4.326000000
H    -4.966000000    -4.033000000    -5.231000000
C    -5.950000000    -4.169000000    -3.313000000
H    -6.097000000    -5.245000000    -3.346000000
C    -6.415000000    -3.444000000    -2.230000000
H    -6.952000000    -4.010000000    -1.472000000
C    -6.106000000    -2.097000000    -2.089000000
O    -6.736000000    -1.387000000    -1.104000000
C    -6.178000000    -1.092000000     0.130000000
C    -6.601000000     0.085000000     0.832000000
H    -7.474000000     0.651000000     0.518000000
C    -5.865000000     0.461000000     1.989000000
O    -6.063000000     1.741000000     2.476000000
C    -5.317000000     2.310000000     3.438000000
C    -5.548000000     1.960000000     4.746000000
H    -6.281000000     1.192000000     4.980000000
C    -4.831000000     2.566000000     5.749000000
H    -4.943000000     2.309000000     6.799000000
C    -4.004000000     3.635000000     5.454000000
H    -3.429000000     4.116000000     6.242000000
C    -3.788000000     3.957000000     4.175000000
C    -4.473000000     3.303000000     3.128000000
H    -4.254000000     3.595000000     2.104000000
C    -2.425000000     0.468000000    -0.791000000
H    -3.306000000    -0.112000000    -1.054000000
C    -1.306000000    -0.254000000    -0.502000000
H    -1.286000000    -1.340000000    -0.479000000
C    -0.199000000     0.339000000    -0.001000000
H     0.715000000    -0.250000000     0.251000000
C    -0.119000000     1.738000000     0.154000000
H     0.823000000     2.066000000     0.587000000
C    -1.292000000     2.462000000    -0.070000000
H    -1.283000000     3.517000000     0.192000000
C    -2.472000000     1.860000000    -0.523000000
C    -3.681000000     2.701000000    -0.822000000
O    -3.657000000     3.922000000    -0.898000000
O    -4.712000000     2.168000000    -1.150000000
O    -3.529000000     7.181000000     1.862000000
H    -3.534000000     8.055000000     2.252000000
H    -3.829000000     6.603000000     2.563000000
O    -6.468000000    -0.021000000    -5.651000000
H    -6.535000000     0.584000000    -4.912000000
H    -5.626000000     0.188000000    -6.056000000
O    -4.321000000     7.616000000    -0.745000000
H    -4.048000000     7.379000000     0.141000000
H    -3.513000000     7.888000000    -1.180000000
O    -5.774000000     5.142000000    -1.918000000
H    -5.588000000     6.023000000    -1.593000000
H    -5.022000000     4.620000000    -1.638000000
O    -5.944000000     7.575000000    -3.899000000
H    -5.485000000     6.886000000    -4.379000000
H    -6.214000000     7.159000000    -3.081000000
O    -0.373000000     6.158000000    -2.095000000
H    -0.852000000     6.034000000    -1.275000000
H    -0.245000000     5.272000000    -2.434000000
O    -3.000000000     3.824000000    -3.716000000
H    -2.096000000     3.698000000    -3.430000000
H    -3.506000000     3.861000000    -2.904000000
O    -7.008000000     4.296000000    -4.182000000
H    -6.633000000     4.603000000    -3.356000000
H    -7.897000000     4.653000000    -4.188000000
O    -5.572000000     1.859000000    -3.564000000
H    -6.156000000     2.600000000    -3.724000000
H    -5.347000000     1.927000000    -2.636000000
O    -6.817000000     3.368000000    -0.202000000
H    -6.148000000     2.706000000    -0.378000000
H    -6.506000000     4.149000000    -0.659000000
O    -9.332000000     2.902000000    -1.927000000
H    -8.384000000     2.764000000    -1.942000000
H    -9.656000000     2.262000000    -1.294000000
O    -8.762000000     2.866000000     2.034000000
H    -9.062000000     1.973000000     2.201000000
H    -8.286000000     2.807000000     1.206000000
O    -8.643000000    -0.126000000    -2.915000000
H    -7.927000000    -0.301000000    -2.305000000
H    -9.421000000    -0.470000000    -2.477000000
O    -4.074000000     6.059000000    -5.336000000
H    -3.274000000     6.559000000    -5.175000000
H    -3.836000000     5.154000000    -5.133000000
O    -1.935000000     5.880000000     0.044000000
H    -2.459000000     6.280000000     0.737000000
H    -2.534000000     5.273000000    -0.391000000
O    -3.266000000     1.950000000    -5.411000000
H    -3.301000000     2.705000000    -4.824000000
H    -3.968000000     1.375000000    -5.105000000
O    -6.702000000     5.059000000     1.909000000
H    -6.928000000     5.788000000     1.332000000
H    -6.692000000     4.293000000     1.335000000
O    -0.167000000     3.667000000    -3.425000000
H     0.201000000     2.784000000    -3.395000000
H    -0.098000000     3.923000000    -4.345000000
O     0.037000000     0.614000000    -2.803000000
H    -0.563000000    -0.131000000    -2.842000000
H    -0.023000000     0.923000000    -1.899000000
