215
-1444.07396
C    -3.863000000    -2.530000000     0.048000000
H    -3.891000000    -1.851000000    -0.800000000
C    -3.868000000    -2.018000000     1.388000000
C    -3.547000000    -2.912000000     2.418000000
H    -3.489000000    -2.466000000     3.407000000
C    -3.881000000    -0.530000000     1.590000000
O    -4.909000000     0.142000000     0.793000000
H    -2.903000000    -0.055000000     1.426000000
O    -4.027000000    -0.024000000     2.942000000
C    -3.210000000     0.908000000     3.409000000
C    -2.098000000     0.488000000     4.089000000
H    -1.837000000    -0.548000000     4.289000000
C    -1.098000000     1.387000000     4.355000000
O     0.091000000     0.927000000     5.000000000
C    -1.177000000     2.682000000     3.999000000
C     0.051000000     3.613000000     4.240000000
H    -0.359000000     4.625000000     4.226000000
C     1.160000000     3.610000000     3.202000000
C     1.220000000     4.549000000     2.194000000
H     0.416000000     5.280000000     2.177000000
H     0.476000000     3.490000000     5.238000000
C    -2.374000000     3.169000000     3.445000000
H    -2.527000000     4.202000000     3.142000000
C    -3.375000000     2.270000000     3.142000000
C    -4.556000000     2.713000000     2.307000000
H    -4.687000000     3.792000000     2.411000000
H    -5.451000000     2.172000000     2.621000000
C    -4.331000000     2.479000000     0.779000000
C    -3.621000000     3.479000000    -0.011000000
H    -3.467000000     4.429000000     0.495000000
C    -4.554000000     1.310000000     0.124000000
C    -4.124000000     1.095000000    -1.197000000
H    -4.283000000     0.141000000    -1.695000000
C    -3.502000000     2.079000000    -1.949000000
O    -3.093000000     1.788000000    -3.185000000
C    -1.701000000     1.460000000    -3.460000000
C    -1.682000000     0.427000000    -4.511000000
C    -0.537000000     0.228000000    -5.301000000
H     0.312000000     0.890000000    -5.152000000
C    -2.675000000    -0.605000000    -4.576000000
H    -3.561000000    -0.570000000    -3.948000000
O    -1.014000000     2.686000000    -3.961000000
H    -1.206000000     1.146000000    -2.529000000
C    -3.278000000     3.317000000    -1.364000000
C    -2.573000000     4.401000000    -2.046000000
H    -2.814000000     5.317000000    -1.501000000
H    -3.096000000     4.489000000    -3.000000000
C    -1.077000000     4.297000000    -2.040000000
C    -0.289000000     4.982000000    -1.092000000
H    -0.763000000     5.541000000    -0.289000000
C    -0.450000000     3.396000000    -2.944000000
C     0.933000000     3.297000000    -2.981000000
H     1.234000000     2.543000000    -3.703000000
C     1.768000000     3.936000000    -2.063000000
O     3.091000000     3.571000000    -1.993000000
C     3.509000000     2.578000000    -1.000000000
C     4.423000000     1.469000000    -1.586000000
C     4.138000000     0.761000000    -2.752000000
H     3.224000000     1.004000000    -3.287000000
C     5.504000000     0.965000000    -0.857000000
H     5.880000000     1.532000000    -0.008000000
O     4.048000000     3.271000000     0.166000000
H     2.594000000     2.121000000    -0.595000000
C     1.088000000     4.752000000    -1.109000000
C     1.874000000     5.400000000    -0.065000000
H     1.487000000     6.374000000     0.242000000
H     2.808000000     5.775000000    -0.488000000
C     2.141000000     4.529000000     1.176000000
C     3.136000000     3.535000000     1.216000000
C     3.177000000     2.732000000     2.283000000
H     3.930000000     1.950000000     2.341000000
C     2.236000000     2.654000000     3.317000000
O     2.244000000     1.567000000     4.106000000
C     1.143000000     0.673000000     4.086000000
H     0.768000000     0.665000000     3.052000000
C     1.698000000    -0.712000000     4.253000000
C     1.012000000    -1.627000000     5.065000000
H     0.090000000    -1.350000000     5.569000000
C     2.684000000    -1.136000000     3.394000000
H     3.178000000    -0.413000000     2.751000000
C     3.042000000    -2.464000000     3.378000000
O     4.049000000    -2.897000000     2.554000000
C     2.394000000    -3.404000000     4.191000000
H     2.532000000    -4.473000000     4.053000000
C     1.375000000    -2.981000000     5.046000000
O     0.709000000    -3.970000000     5.834000000
C    -0.662000000    -4.090000000     5.794000000
C    -1.253000000    -4.306000000     4.512000000
H    -0.623000000    -4.074000000     3.656000000
C    -1.428000000    -4.391000000     6.879000000
H    -0.927000000    -4.426000000     7.843000000
C    -2.760000000    -4.862000000     6.795000000
H    -3.334000000    -4.999000000     7.707000000
C    -3.288000000    -5.085000000     5.511000000
H    -4.253000000    -5.567000000     5.374000000
C    -2.534000000    -4.806000000     4.384000000
O    -3.007000000    -5.178000000     3.148000000
C    -3.363000000    -4.273000000     2.179000000
C    -3.284000000    -4.638000000     0.840000000
H    -2.996000000    -5.663000000     0.620000000
C    -3.549000000    -3.836000000    -0.222000000
O    -3.217000000    -4.346000000    -1.473000000
C    -4.009000000    -4.161000000    -2.533000000
C    -3.466000000    -3.492000000    -3.638000000
H    -2.395000000    -3.310000000    -3.688000000
C    -5.360000000    -4.502000000    -2.603000000
H    -5.817000000    -4.972000000    -1.736000000
C    -6.101000000    -4.262000000    -3.741000000
H    -7.129000000    -4.604000000    -3.834000000
C    -5.542000000    -3.561000000    -4.861000000
H    -6.073000000    -3.285000000    -5.769000000
C    -4.230000000    -3.098000000    -4.716000000
O    -3.709000000    -2.427000000    -5.812000000
C    -2.671000000    -1.506000000    -5.655000000
C    -1.618000000    -1.574000000    -6.540000000
H    -1.562000000    -2.304000000    -7.343000000
C    -0.548000000    -0.688000000    -6.323000000
O     0.603000000    -0.844000000    -7.116000000
C     1.899000000    -0.408000000    -6.799000000
C     2.599000000    -0.993000000    -5.718000000
H     2.045000000    -1.701000000    -5.107000000
C     2.523000000     0.561000000    -7.583000000
H     2.020000000     1.067000000    -8.403000000
C     3.838000000     0.988000000    -7.260000000
H     4.328000000     1.702000000    -7.917000000
C     4.427000000     0.468000000    -6.106000000
H     5.446000000     0.723000000    -5.824000000
C     3.792000000    -0.486000000    -5.295000000
O     4.505000000    -1.063000000    -4.242000000
C     4.896000000    -0.335000000    -3.141000000
C     5.981000000    -0.826000000    -2.423000000
H     6.441000000    -1.796000000    -2.592000000
C     6.248000000    -0.128000000    -1.251000000
O     7.153000000    -0.688000000    -0.348000000
C     6.781000000    -1.068000000     0.966000000
C     7.399000000    -0.488000000     2.065000000
H     8.232000000     0.207000000     2.001000000
C     6.999000000    -0.726000000     3.381000000
H     7.445000000    -0.185000000     4.211000000
C     5.896000000    -1.578000000     3.547000000
H     5.448000000    -1.662000000     4.534000000
C     5.166000000    -2.062000000     2.384000000
C     5.571000000    -1.743000000     1.102000000
H     5.026000000    -2.096000000     0.231000000
C     1.999000000    -1.776000000    -1.254000000
H     2.981000000    -2.151000000    -1.530000000
C     1.955000000    -0.948000000    -0.163000000
H     2.863000000    -0.668000000     0.365000000
C     0.723000000    -0.428000000     0.250000000
H     0.696000000     0.103000000     1.227000000
C    -0.428000000    -0.734000000    -0.513000000
H    -1.375000000    -0.344000000    -0.148000000
C    -0.377000000    -1.537000000    -1.622000000
H    -1.302000000    -1.744000000    -2.154000000
C     0.830000000    -2.169000000    -1.944000000
C     0.914000000    -3.171000000    -3.079000000
O    -0.043000000    -3.381000000    -3.817000000
O     1.994000000    -3.679000000    -3.271000000
O     4.088000000    -3.937000000    -7.849000000
H     4.739000000    -4.570000000    -7.545000000
H     3.338000000    -4.070000000    -7.269000000
O     2.415000000    -7.625000000    -0.759000000
H     1.846000000    -7.551000000    -1.525000000
H     3.063000000    -6.930000000    -0.873000000
O     1.997000000    -4.251000000    -6.006000000
H     2.307000000    -5.139000000    -6.183000000
H     2.159000000    -4.122000000    -5.072000000
O     0.955000000    -6.130000000    -2.707000000
H     0.300000000    -5.696000000    -3.254000000
H     1.608000000    -5.452000000    -2.533000000
O    -2.240000000    -4.953000000    -8.493000000
H    -1.996000000    -4.861000000    -7.572000000
H    -1.473000000    -4.645000000    -8.975000000
O    -3.480000000    -7.123000000    -2.651000000
H    -3.360000000    -7.681000000    -3.420000000
H    -3.979000000    -6.373000000    -2.975000000
O     4.447000000    -4.335000000    -3.088000000
H     4.928000000    -3.655000000    -3.560000000
H     3.527000000    -4.092000000    -3.189000000
O     2.891000000    -8.749000000    -3.770000000
H     3.635000000    -8.174000000    -3.949000000
H     2.629000000    -9.078000000    -4.630000000
O     1.305000000    -5.765000000     2.133000000
H     1.035000000    -4.869000000     1.934000000
H     2.217000000    -5.810000000     1.845000000
O    -3.169000000    -6.494000000    -5.824000000
H    -2.818000000    -7.193000000    -6.376000000
H    -2.462000000    -5.851000000    -5.775000000
O     0.185000000    -8.658000000    -2.719000000
H     0.288000000    -7.710000000    -2.803000000
H     1.081000000    -8.994000000    -2.681000000
O     0.011000000    -3.106000000     1.459000000
H     0.568000000    -2.494000000     0.977000000
H    -0.875000000    -2.918000000     1.148000000
O     2.920000000    -6.598000000    -7.173000000
H     2.831000000    -7.520000000    -6.932000000
H     3.275000000    -6.616000000    -8.062000000
O    -1.653000000    -7.735000000    -0.085000000
H    -1.862000000    -7.174000000    -0.833000000
H    -0.710000000    -7.624000000     0.040000000
O     4.793000000    -5.821000000    -0.970000000
H     4.464000000    -5.144000000    -1.562000000
H     5.745000000    -5.760000000    -1.043000000
O     4.643000000    -6.924000000    -4.549000000
H     4.418000000    -6.027000000    -4.305000000
H     4.480000000    -6.965000000    -5.491000000
O    -1.013000000    -4.809000000    -5.979000000
H    -0.129000000    -4.964000000    -6.313000000
H    -0.886000000    -4.234000000    -5.224000000
O     6.422000000    -3.382000000    -5.151000000
H     6.898000000    -3.581000000    -4.345000000
H     6.963000000    -2.728000000    -5.594000000
O     0.631000000    -3.349000000    -8.564000000
H     1.235000000    -2.971000000    -7.924000000
H     1.171000000    -3.951000000    -9.076000000
