215
-1476.33158
C    -4.008000000    -2.627000000    -0.903000000
H    -4.704000000    -1.953000000    -1.396000000
C    -3.352000000    -2.329000000     0.309000000
C    -2.483000000    -3.245000000     0.842000000
H    -1.910000000    -3.099000000     1.754000000
C    -3.434000000    -1.028000000     0.976000000
O    -4.621000000    -0.295000000     0.558000000
H    -2.539000000    -0.465000000     0.670000000
O    -3.632000000    -1.057000000     2.443000000
C    -3.024000000    -0.122000000     3.260000000
C    -1.967000000    -0.582000000     4.012000000
H    -1.715000000    -1.636000000     4.090000000
C    -1.127000000     0.302000000     4.770000000
O    -0.043000000    -0.303000000     5.359000000
C    -1.305000000     1.702000000     4.675000000
C    -0.212000000     2.656000000     5.119000000
H    -0.605000000     3.579000000     5.550000000
C     0.820000000     2.813000000     4.067000000
C     0.815000000     3.818000000     3.126000000
H    -0.008000000     4.529000000     3.128000000
H     0.249000000     2.138000000     5.963000000
C    -2.482000000     2.128000000     4.050000000
H    -2.611000000     3.207000000     4.003000000
C    -3.373000000     1.268000000     3.333000000
C    -4.580000000     1.873000000     2.612000000
H    -4.820000000     2.798000000     3.140000000
H    -5.402000000     1.212000000     2.893000000
C    -4.269000000     2.070000000     1.113000000
C    -3.786000000     3.373000000     0.744000000
H    -3.561000000     4.128000000     1.493000000
C    -4.373000000     1.015000000     0.188000000
C    -4.065000000     1.315000000    -1.095000000
H    -4.113000000     0.442000000    -1.742000000
C    -3.651000000     2.567000000    -1.556000000
O    -3.344000000     2.654000000    -2.947000000
C    -2.008000000     2.395000000    -3.328000000
C    -1.950000000     1.625000000    -4.610000000
C    -0.778000000     1.867000000    -5.357000000
H    -0.030000000     2.581000000    -5.023000000
C    -2.731000000     0.577000000    -5.001000000
H    -3.596000000     0.307000000    -4.401000000
O    -1.378000000     3.715000000    -3.329000000
H    -1.519000000     1.872000000    -2.493000000
C    -3.478000000     3.598000000    -0.613000000
C    -2.766000000     4.887000000    -1.086000000
H    -3.059000000     5.707000000    -0.426000000
H    -3.024000000     5.260000000    -2.079000000
C    -1.219000000     4.677000000    -1.041000000
C    -0.380000000     5.035000000     0.013000000
H    -0.803000000     5.474000000     0.913000000
C    -0.663000000     4.033000000    -2.195000000
C     0.706000000     3.671000000    -2.214000000
H     1.161000000     3.291000000    -3.125000000
C     1.509000000     4.009000000    -1.120000000
O     2.713000000     3.373000000    -1.144000000
C     2.908000000     2.306000000    -0.270000000
C     3.741000000     1.238000000    -0.992000000
C     3.559000000     0.957000000    -2.304000000
H     2.907000000     1.514000000    -2.972000000
C     4.526000000     0.415000000    -0.196000000
H     4.740000000     0.673000000     0.838000000
O     3.576000000     2.800000000     0.952000000
H     1.913000000     1.898000000    -0.040000000
C     0.954000000     4.621000000    -0.023000000
C     1.839000000     5.047000000     1.193000000
H     1.493000000     5.962000000     1.678000000
H     2.845000000     5.288000000     0.842000000
C     1.759000000     3.904000000     2.184000000
C     2.757000000     2.860000000     2.058000000
C     2.831000000     1.865000000     3.011000000
H     3.572000000     1.096000000     2.810000000
C     1.870000000     1.842000000     4.026000000
O     1.926000000     0.818000000     4.906000000
C     1.139000000    -0.290000000     4.595000000
H     0.847000000    -0.279000000     3.535000000
C     1.783000000    -1.629000000     4.736000000
C     1.092000000    -2.832000000     4.826000000
H     0.007000000    -2.780000000     4.806000000
C     3.182000000    -1.683000000     4.618000000
H     3.763000000    -0.770000000     4.515000000
C     3.874000000    -2.901000000     4.594000000
O     5.244000000    -2.956000000     4.397000000
C     3.169000000    -4.109000000     4.659000000
H     3.694000000    -5.057000000     4.572000000
C     1.779000000    -4.075000000     4.802000000
O     1.106000000    -5.284000000     4.917000000
C    -0.090000000    -5.278000000     4.224000000
C    -0.144000000    -5.197000000     2.858000000
H     0.765000000    -5.075000000     2.275000000
C    -1.193000000    -5.544000000     5.051000000
H    -1.107000000    -5.803000000     6.103000000
C    -2.440000000    -5.797000000     4.422000000
H    -3.307000000    -6.169000000     4.962000000
C    -2.508000000    -5.794000000     3.008000000
H    -3.376000000    -6.160000000     2.466000000
C    -1.404000000    -5.464000000     2.223000000
O    -1.558000000    -5.459000000     0.830000000
C    -2.262000000    -4.427000000     0.227000000
C    -2.867000000    -4.784000000    -0.984000000
H    -2.828000000    -5.793000000    -1.387000000
C    -3.693000000    -3.821000000    -1.547000000
O    -4.245000000    -4.265000000    -2.731000000
C    -4.622000000    -3.403000000    -3.758000000
C    -3.670000000    -2.750000000    -4.489000000
H    -2.618000000    -2.861000000    -4.241000000
C    -5.972000000    -3.380000000    -4.147000000
H    -6.667000000    -3.936000000    -3.523000000
C    -6.371000000    -2.636000000    -5.300000000
H    -7.415000000    -2.491000000    -5.566000000
C    -5.390000000    -2.018000000    -6.048000000
H    -5.799000000    -1.563000000    -6.946000000
C    -4.069000000    -1.950000000    -5.624000000
O    -3.169000000    -1.318000000    -6.495000000
C    -2.447000000    -0.190000000    -6.176000000
C    -1.422000000     0.196000000    -6.986000000
H    -1.193000000    -0.390000000    -7.873000000
C    -0.565000000     1.157000000    -6.523000000
O     0.688000000     1.311000000    -7.162000000
C     1.921000000     1.301000000    -6.509000000
C     2.279000000     0.335000000    -5.602000000
H     1.519000000    -0.375000000    -5.287000000
C     2.778000000     2.314000000    -6.916000000
H     2.457000000     3.127000000    -7.562000000
C     4.002000000     2.405000000    -6.289000000
H     4.770000000     3.110000000    -6.596000000
C     4.410000000     1.448000000    -5.373000000
H     5.369000000     1.525000000    -4.867000000
C     3.546000000     0.421000000    -5.013000000
O     4.005000000    -0.503000000    -4.083000000
C     4.156000000    -0.232000000    -2.764000000
C     4.963000000    -1.015000000    -2.043000000
H     5.496000000    -1.875000000    -2.440000000
C     5.184000000    -0.673000000    -0.736000000
O     6.082000000    -1.463000000    -0.097000000
C     6.257000000    -1.356000000     1.285000000
C     7.064000000    -0.310000000     1.674000000
H     7.639000000     0.299000000     0.981000000
C     7.253000000    -0.097000000     3.037000000
H     7.932000000     0.648000000     3.445000000
C     6.593000000    -0.925000000     3.973000000
H     6.705000000    -0.884000000     5.053000000
C     5.796000000    -2.031000000     3.510000000
C     5.702000000    -2.260000000     2.172000000
H     5.239000000    -3.108000000     1.674000000
C     0.973000000    -2.155000000     0.184000000
H     1.452000000    -3.094000000     0.451000000
C     1.139000000    -1.079000000     1.021000000
H     1.672000000    -1.145000000     1.966000000
C     0.423000000     0.108000000     0.724000000
H     0.439000000     0.894000000     1.450000000
C    -0.136000000     0.291000000    -0.515000000
H    -0.725000000     1.188000000    -0.687000000
C    -0.254000000    -0.756000000    -1.423000000
H    -0.696000000    -0.433000000    -2.362000000
C     0.288000000    -2.019000000    -1.042000000
C     0.293000000    -3.174000000    -2.042000000
O    -0.586000000    -3.216000000    -2.875000000
O     1.103000000    -4.141000000    -1.960000000
O    -0.871000000    -7.883000000    -2.547000000
H    -0.009000000    -7.669000000    -2.189000000
H    -1.180000000    -7.063000000    -2.932000000
O     0.032000000    -9.908000000    -4.609000000
H    -0.360000000    -9.297000000    -3.984000000
H     0.469000000    -9.348000000    -5.250000000
O     2.340000000    -8.548000000    -5.675000000
H     3.167000000    -8.785000000    -6.096000000
H     2.044000000    -7.770000000    -6.147000000
O     1.589000000   -10.115000000    -0.702000000
H     1.441000000    -9.562000000     0.065000000
H     1.877000000    -9.508000000    -1.384000000
O     0.041000000    -4.769000000    -7.116000000
H     0.878000000    -5.113000000    -7.428000000
H     0.240000000    -3.876000000    -6.833000000
O     5.780000000    -6.051000000     0.737000000
H     6.568000000    -5.922000000     1.265000000
H     5.966000000    -5.597000000    -0.085000000
O    -1.800000000   -10.065000000    -0.928000000
H    -2.666000000    -9.835000000    -1.266000000
H    -1.193000000    -9.542000000    -1.451000000
O    -5.251000000    -3.798000000     2.061000000
H    -4.852000000    -4.159000000     1.269000000
H    -5.047000000    -2.863000000     2.026000000
O    -2.909000000    -5.576000000    -6.030000000
H    -3.319000000    -4.805000000    -5.638000000
H    -2.179000000    -5.782000000    -5.445000000
O     3.416000000    -3.716000000    -3.227000000
H     3.120000000    -2.906000000    -3.644000000
H     2.662000000    -4.010000000    -2.715000000
O     3.218000000    -6.126000000     1.468000000
H     2.790000000    -5.935000000     0.634000000
H     4.142000000    -6.232000000     1.244000000
O    -4.058000000    -7.050000000    -3.599000000
H    -4.426000000    -6.185000000    -3.417000000
H    -3.509000000    -6.919000000    -4.372000000
O    -1.004000000    -5.571000000    -4.153000000
H    -0.881000000    -4.811000000    -3.584000000
H    -0.408000000    -5.420000000    -4.887000000
O     1.321000000    -6.396000000    -0.742000000
H     0.422000000    -6.330000000    -0.420000000
H     1.511000000    -5.530000000    -1.103000000
O     1.257000000    -8.508000000     1.388000000
H     0.415000000    -8.428000000     1.836000000
H     1.691000000    -7.669000000     1.541000000
O     5.620000000    -4.992000000    -4.992000000
H     5.060000000    -4.597000000    -4.324000000
H     6.302000000    -5.444000000    -4.496000000
O     2.286000000    -8.080000000    -2.385000000
H     2.078000000    -7.348000000    -1.804000000
H     2.514000000    -7.667000000    -3.218000000
O     5.770000000    -5.009000000    -1.808000000
H     5.029000000    -4.680000000    -2.316000000
H     6.361000000    -4.260000000    -1.732000000
O    -0.435000000    -2.444000000    -5.276000000
H    -1.345000000    -2.171000000    -5.386000000
H    -0.372000000    -2.701000000    -4.356000000
