215
-1453.68199
C    -4.397000000    -2.727000000    -0.286000000
H    -4.925000000    -1.873000000    -0.702000000
C    -3.709000000    -2.508000000     0.951000000
C    -2.959000000    -3.565000000     1.464000000
H    -2.251000000    -3.346000000     2.259000000
C    -3.650000000    -1.153000000     1.716000000
O    -4.761000000    -0.311000000     1.394000000
H    -2.770000000    -0.589000000     1.373000000
O    -3.555000000    -1.339000000     3.164000000
C    -2.652000000    -0.470000000     3.806000000
C    -1.448000000    -1.019000000     4.234000000
H    -1.343000000    -2.100000000     4.186000000
C    -0.455000000    -0.211000000     4.761000000
O     0.672000000    -0.798000000     5.120000000
C    -0.590000000     1.223000000     4.712000000
C     0.505000000     2.121000000     5.272000000
H     0.095000000     3.089000000     5.568000000
C     1.537000000     2.455000000     4.243000000
C     1.323000000     3.526000000     3.361000000
H     0.449000000     4.122000000     3.610000000
H     1.060000000     1.730000000     6.127000000
C    -1.817000000     1.784000000     4.369000000
H    -2.010000000     2.837000000     4.557000000
C    -2.809000000     0.924000000     3.913000000
C    -4.098000000     1.657000000     3.401000000
H    -4.247000000     2.643000000     3.845000000
H    -5.006000000     1.056000000     3.495000000
C    -3.992000000     1.939000000     1.850000000
C    -3.644000000     3.244000000     1.389000000
H    -3.275000000     4.043000000     2.027000000
C    -4.346000000     0.940000000     0.958000000
C    -4.399000000     1.261000000    -0.430000000
H    -4.618000000     0.475000000    -1.147000000
C    -3.938000000     2.517000000    -0.890000000
O    -3.727000000     2.571000000    -2.237000000
C    -2.401000000     2.393000000    -2.820000000
C    -2.427000000     1.823000000    -4.236000000
C    -1.493000000     2.220000000    -5.194000000
H    -0.728000000     2.985000000    -5.085000000
C    -3.206000000     0.687000000    -4.499000000
H    -3.894000000     0.237000000    -3.788000000
O    -1.690000000     3.593000000    -2.917000000
H    -1.900000000     1.653000000    -2.179000000
C    -3.575000000     3.452000000     0.020000000
C    -2.921000000     4.781000000    -0.509000000
H    -3.082000000     5.558000000     0.240000000
H    -3.374000000     5.173000000    -1.422000000
C    -1.417000000     4.541000000    -0.702000000
C    -0.567000000     4.923000000     0.297000000
H    -0.940000000     5.224000000     1.272000000
C    -0.934000000     4.024000000    -1.889000000
C     0.413000000     3.909000000    -2.069000000
H     0.881000000     3.460000000    -2.942000000
C     1.316000000     4.170000000    -1.059000000
O     2.552000000     3.739000000    -1.209000000
C     3.004000000     2.569000000    -0.544000000
C     3.853000000     1.623000000    -1.507000000
C     3.350000000     1.404000000    -2.760000000
H     2.468000000     1.965000000    -3.058000000
C     4.860000000     0.854000000    -1.038000000
H     5.304000000     1.051000000    -0.066000000
O     3.745000000     2.956000000     0.655000000
H     2.119000000     2.001000000    -0.220000000
C     0.802000000     4.653000000     0.141000000
C     1.797000000     4.963000000     1.254000000
H     1.421000000     5.798000000     1.849000000
H     2.782000000     5.234000000     0.869000000
C     2.008000000     3.736000000     2.133000000
C     3.048000000     2.826000000     1.836000000
C     3.328000000     1.786000000     2.769000000
H     4.129000000     1.093000000     2.525000000
C     2.556000000     1.544000000     3.909000000
O     2.721000000     0.308000000     4.554000000
C     1.767000000    -0.705000000     4.174000000
H     1.240000000    -0.447000000     3.244000000
C     2.544000000    -2.019000000     3.971000000
C     1.904000000    -3.208000000     4.304000000
H     0.883000000    -3.326000000     4.660000000
C     3.869000000    -2.124000000     3.553000000
H     4.458000000    -1.248000000     3.293000000
C     4.439000000    -3.367000000     3.116000000
O     5.770000000    -3.473000000     2.645000000
C     3.738000000    -4.544000000     3.449000000
H     4.357000000    -5.406000000     3.216000000
C     2.497000000    -4.492000000     4.025000000
O     1.800000000    -5.668000000     4.234000000
C     0.456000000    -5.826000000     4.111000000
C    -0.087000000    -5.642000000     2.786000000
H     0.595000000    -5.325000000     2.002000000
C    -0.475000000    -5.959000000     5.173000000
H    -0.151000000    -6.102000000     6.200000000
C    -1.762000000    -6.309000000     4.857000000
H    -2.443000000    -6.551000000     5.669000000
C    -2.279000000    -6.205000000     3.540000000
H    -3.330000000    -6.419000000     3.361000000
C    -1.407000000    -5.855000000     2.485000000
O    -1.952000000    -5.815000000     1.192000000
C    -2.841000000    -4.809000000     0.757000000
C    -3.409000000    -4.954000000    -0.489000000
H    -3.357000000    -5.903000000    -1.016000000
C    -4.199000000    -3.900000000    -1.024000000
O    -4.708000000    -3.978000000    -2.330000000
C    -5.147000000    -2.971000000    -3.167000000
C    -4.315000000    -2.498000000    -4.179000000
H    -3.299000000    -2.881000000    -4.241000000
C    -6.463000000    -2.545000000    -3.045000000
H    -7.086000000    -2.935000000    -2.245000000
C    -6.892000000    -1.529000000    -3.952000000
H    -7.908000000    -1.145000000    -3.918000000
C    -6.113000000    -1.147000000    -4.991000000
H    -6.518000000    -0.411000000    -5.681000000
C    -4.797000000    -1.531000000    -5.094000000
O    -3.915000000    -1.025000000    -6.004000000
C    -3.092000000     0.019000000    -5.664000000
C    -2.206000000     0.509000000    -6.639000000
H    -2.077000000    -0.125000000    -7.512000000
C    -1.379000000     1.608000000    -6.412000000
O    -0.385000000     1.978000000    -7.268000000
C     0.944000000     2.008000000    -6.886000000
C     1.457000000     0.958000000    -6.052000000
H     0.807000000     0.151000000    -5.721000000
C     1.788000000     3.043000000    -7.320000000
H     1.513000000     3.772000000    -8.078000000
C     3.040000000     3.131000000    -6.772000000
H     3.655000000     3.932000000    -7.176000000
C     3.544000000     2.117000000    -5.980000000
H     4.605000000     2.066000000    -5.748000000
C     2.769000000     1.014000000    -5.596000000
O     3.222000000     0.019000000    -4.736000000
C     3.902000000     0.344000000    -3.550000000
C     4.958000000    -0.451000000    -3.030000000
H     5.355000000    -1.334000000    -3.522000000
C     5.469000000    -0.182000000    -1.807000000
O     6.493000000    -0.979000000    -1.373000000
C     6.758000000    -1.232000000    -0.034000000
C     7.674000000    -0.392000000     0.629000000
H     8.248000000     0.404000000     0.162000000
C     7.927000000    -0.535000000     1.971000000
H     8.730000000    -0.028000000     2.501000000
C     7.306000000    -1.607000000     2.613000000
H     7.564000000    -1.777000000     3.656000000
C     6.371000000    -2.406000000     1.960000000
C     6.038000000    -2.169000000     0.661000000
H     5.345000000    -2.786000000     0.095000000
C     1.973000000    -1.425000000    -0.992000000
H     2.896000000    -1.983000000    -1.124000000
C     1.799000000    -0.762000000     0.253000000
H     2.586000000    -0.589000000     0.983000000
C     0.610000000    -0.143000000     0.562000000
H     0.615000000     0.415000000     1.510000000
C    -0.452000000    -0.064000000    -0.408000000
H    -1.342000000     0.500000000    -0.144000000
C    -0.301000000    -0.775000000    -1.570000000
H    -1.171000000    -0.816000000    -2.221000000
C     0.909000000    -1.444000000    -1.902000000
C     1.073000000    -2.161000000    -3.202000000
O     0.172000000    -2.217000000    -4.041000000
O     2.175000000    -2.713000000    -3.478000000
O    -2.249000000    -3.806000000    -7.075000000
H    -1.341000000    -3.621000000    -7.317000000
H    -2.262000000    -3.733000000    -6.121000000
O    -1.176000000    -4.367000000    -4.658000000
H    -0.430000000    -4.767000000    -5.104000000
H    -0.815000000    -3.584000000    -4.242000000
O     4.857000000    -7.019000000    -6.845000000
H     4.041000000    -7.339000000    -6.458000000
H     4.715000000    -7.085000000    -7.789000000
O     1.876000000    -5.692000000    -3.049000000
H     2.225000000    -6.031000000    -3.874000000
H     1.984000000    -4.743000000    -3.115000000
O     2.482000000    -8.641000000    -4.655000000
H     2.680000000    -9.366000000    -5.248000000
H     2.352000000    -7.889000000    -5.232000000
O     7.350000000    -0.768000000    -5.597000000
H     6.816000000    -1.398000000    -5.113000000
H     8.154000000    -1.244000000    -5.803000000
O     5.192000000    -7.036000000    -3.180000000
H     5.448000000    -6.626000000    -2.354000000
H     4.349000000    -6.638000000    -3.395000000
O     0.344000000    -9.051000000    -2.927000000
H     1.195000000    -8.944000000    -3.352000000
H    -0.029000000    -8.169000000    -2.914000000
O     1.957000000    -6.430000000    -5.937000000
H     1.794000000    -6.615000000    -6.862000000
H     2.242000000    -5.516000000    -5.923000000
O     0.228000000    -3.170000000    -8.732000000
H     0.045000000    -2.326000000    -9.145000000
H     0.508000000    -2.947000000    -7.844000000
O     5.327000000    -5.519000000    -0.707000000
H     4.720000000    -5.900000000    -0.072000000
H     6.101000000    -5.292000000    -0.191000000
O     6.065000000    -3.395000000    -5.102000000
H     6.936000000    -3.782000000    -5.007000000
H     5.610000000    -3.628000000    -4.293000000
O     2.149000000    -8.905000000    -0.654000000
H     2.870000000    -8.295000000    -0.813000000
H     1.450000000    -8.605000000    -1.236000000
O    -0.788000000    -6.514000000    -2.804000000
H    -0.012000000    -5.960000000    -2.893000000
H    -1.438000000    -6.109000000    -3.377000000
O     3.142000000    -4.190000000    -5.518000000
H     3.989000000    -4.129000000    -5.961000000
H     3.241000000    -3.647000000    -4.736000000
O     4.657000000    -3.640000000    -2.863000000
H     3.714000000    -3.486000000    -2.931000000
H     4.749000000    -4.233000000    -2.117000000
O     5.103000000    -3.410000000    -7.741000000
H     5.857000000    -3.909000000    -8.058000000
H     5.300000000    -3.238000000    -6.820000000
O     4.065000000    -0.960000000    -8.328000000
H     4.371000000    -1.856000000    -8.468000000
H     3.890000000    -0.910000000    -7.389000000
O     1.317000000    -2.412000000    -6.394000000
H     2.145000000    -2.855000000    -6.207000000
H     0.945000000    -2.225000000    -5.533000000
