215
-1432.53099
C    -3.060000000    -3.174000000    -2.812000000
H    -3.229000000    -2.311000000    -3.450000000
C    -3.184000000    -2.946000000    -1.409000000
C    -2.761000000    -3.991000000    -0.566000000
H    -2.796000000    -3.928000000     0.519000000
C    -3.576000000    -1.621000000    -0.907000000
O    -4.439000000    -0.766000000    -1.719000000
H    -2.639000000    -1.150000000    -0.577000000
O    -4.374000000    -1.834000000     0.282000000
C    -4.161000000    -0.977000000     1.408000000
C    -3.361000000    -1.509000000     2.424000000
H    -3.085000000    -2.555000000     2.318000000
C    -2.842000000    -0.721000000     3.463000000
O    -1.932000000    -1.260000000     4.276000000
C    -3.166000000     0.668000000     3.482000000
C    -2.746000000     1.569000000     4.610000000
H    -3.572000000     2.263000000     4.782000000
C    -1.386000000     2.163000000     4.258000000
C    -1.295000000     3.357000000     3.479000000
H    -2.163000000     3.961000000     3.228000000
H    -2.576000000     1.019000000     5.537000000
C    -4.105000000     1.152000000     2.519000000
H    -4.465000000     2.177000000     2.533000000
C    -4.594000000     0.298000000     1.498000000
C    -5.314000000     1.026000000     0.424000000
H    -5.915000000     1.825000000     0.863000000
H    -6.074000000     0.331000000     0.063000000
C    -4.522000000     1.521000000    -0.831000000
C    -4.085000000     2.837000000    -0.932000000
H    -4.250000000     3.486000000    -0.076000000
C    -4.257000000     0.611000000    -1.825000000
C    -3.616000000     1.041000000    -2.981000000
H    -3.241000000     0.364000000    -3.744000000
C    -3.157000000     2.332000000    -3.113000000
O    -2.254000000     2.637000000    -4.036000000
C    -0.872000000     2.585000000    -3.635000000
C    -0.078000000     1.623000000    -4.535000000
C     1.335000000     1.475000000    -4.318000000
H     1.847000000     2.051000000    -3.551000000
C    -0.717000000     0.818000000    -5.469000000
H    -1.779000000     0.887000000    -5.690000000
O    -0.305000000     3.903000000    -3.477000000
H    -0.924000000     2.124000000    -2.638000000
C    -3.346000000     3.234000000    -2.074000000
C    -2.679000000     4.630000000    -2.033000000
H    -3.246000000     5.323000000    -1.408000000
H    -2.536000000     5.047000000    -3.032000000
C    -1.370000000     4.537000000    -1.408000000
C    -1.242000000     4.788000000     0.003000000
H    -2.166000000     5.060000000     0.507000000
C    -0.212000000     4.227000000    -2.147000000
C     1.026000000     4.126000000    -1.491000000
H     1.774000000     3.488000000    -1.956000000
C     1.112000000     4.492000000    -0.137000000
O     2.306000000     4.231000000     0.460000000
C     2.548000000     3.142000000     1.350000000
C     4.029000000     2.738000000     1.160000000
C     4.610000000     2.558000000    -0.074000000
H     4.063000000     2.746000000    -0.994000000
C     4.748000000     2.300000000     2.284000000
H     4.305000000     2.393000000     3.272000000
O     2.240000000     3.452000000     2.738000000
H     1.806000000     2.414000000     0.991000000
C    -0.045000000     4.867000000     0.644000000
C    -0.034000000     5.028000000     2.135000000
H    -0.903000000     5.633000000     2.402000000
H     0.856000000     5.636000000     2.314000000
C    -0.092000000     3.787000000     2.946000000
C     1.070000000     3.059000000     3.197000000
C     0.987000000     1.939000000     3.973000000
H     1.937000000     1.507000000     4.277000000
C    -0.245000000     1.457000000     4.492000000
O    -0.264000000     0.193000000     5.072000000
C    -0.540000000    -0.875000000     4.157000000
H    -0.310000000    -0.450000000     3.169000000
C     0.358000000    -2.060000000     4.407000000
C    -0.194000000    -3.331000000     4.260000000
H    -1.265000000    -3.499000000     4.185000000
C     1.763000000    -1.870000000     4.468000000
H     2.122000000    -0.868000000     4.688000000
C     2.582000000    -3.005000000     4.424000000
O     3.889000000    -2.820000000     4.702000000
C     2.076000000    -4.241000000     4.372000000
H     2.763000000    -5.078000000     4.474000000
C     0.675000000    -4.446000000     4.209000000
O     0.286000000    -5.706000000     3.915000000
C    -0.949000000    -6.010000000     3.324000000
C    -0.946000000    -5.806000000     1.914000000
H    -0.034000000    -5.431000000     1.457000000
C    -2.062000000    -6.558000000     3.961000000
H    -1.990000000    -6.916000000     4.985000000
C    -3.153000000    -6.979000000     3.199000000
H    -3.998000000    -7.417000000     3.726000000
C    -3.176000000    -6.810000000     1.828000000
H    -4.000000000    -7.167000000     1.215000000
C    -2.023000000    -6.295000000     1.132000000
O    -1.952000000    -6.320000000    -0.234000000
C    -2.285000000    -5.227000000    -1.032000000
C    -2.099000000    -5.366000000    -2.409000000
H    -1.740000000    -6.328000000    -2.767000000
C    -2.473000000    -4.321000000    -3.292000000
O    -2.230000000    -4.477000000    -4.671000000
C    -2.430000000    -3.461000000    -5.643000000
C    -1.381000000    -2.645000000    -6.083000000
H    -0.421000000    -2.738000000    -5.581000000
C    -3.663000000    -3.415000000    -6.327000000
H    -4.488000000    -4.029000000    -5.976000000
C    -3.784000000    -2.379000000    -7.344000000
H    -4.756000000    -2.029000000    -7.681000000
C    -2.695000000    -1.601000000    -7.793000000
H    -2.840000000    -0.793000000    -8.506000000
C    -1.496000000    -1.711000000    -7.077000000
O    -0.494000000    -0.852000000    -7.357000000
C     0.055000000     0.029000000    -6.373000000
C     1.446000000    -0.071000000    -6.221000000
H     1.987000000    -0.768000000    -6.857000000
C     2.040000000     0.664000000    -5.173000000
O     3.322000000     0.356000000    -4.829000000
C     4.147000000     1.291000000    -4.294000000
C     4.808000000     1.131000000    -3.089000000
H     4.583000000     0.311000000    -2.412000000
C     4.462000000     2.386000000    -5.118000000
H     3.941000000     2.591000000    -6.050000000
C     5.424000000     3.322000000    -4.729000000
H     5.496000000     4.213000000    -5.348000000
C     6.033000000     3.156000000    -3.459000000
H     6.727000000     3.934000000    -3.150000000
C     5.727000000     2.121000000    -2.635000000
O     6.516000000     2.020000000    -1.473000000
C     5.916000000     2.048000000    -0.220000000
C     6.520000000     1.540000000     0.900000000
H     7.460000000     0.994000000     0.933000000
C     5.941000000     1.608000000     2.168000000
O     6.464000000     0.912000000     3.200000000
C     5.762000000     0.331000000     4.220000000
C     5.966000000     0.728000000     5.594000000
H     6.588000000     1.613000000     5.709000000
C     5.424000000    -0.020000000     6.608000000
H     5.678000000     0.179000000     7.646000000
C     4.718000000    -1.176000000     6.224000000
H     4.304000000    -1.751000000     7.048000000
C     4.510000000    -1.597000000     4.913000000
C     5.093000000    -0.854000000     3.891000000
H     5.008000000    -1.284000000     2.896000000
C     2.535000000    -1.082000000     0.188000000
H     3.509000000    -1.389000000     0.560000000
C     1.743000000    -0.199000000     0.887000000
H     2.132000000     0.161000000     1.836000000
C     0.528000000     0.296000000     0.361000000
H    -0.079000000     1.067000000     0.902000000
C     0.042000000    -0.113000000    -0.926000000
H    -0.865000000     0.289000000    -1.371000000
C     0.786000000    -0.973000000    -1.632000000
H     0.394000000    -1.274000000    -2.600000000
C     1.999000000    -1.506000000    -1.114000000
C     2.653000000    -2.562000000    -1.946000000
O     2.232000000    -2.857000000    -3.031000000
O     3.531000000    -3.281000000    -1.445000000
O     6.541000000    -4.992000000    -1.622000000
H     5.827000000    -5.096000000    -2.251000000
H     6.291000000    -5.545000000    -0.882000000
O     5.686000000    -2.877000000    -7.161000000
H     5.019000000    -3.048000000    -6.496000000
H     5.677000000    -3.658000000    -7.715000000
O     2.652000000    -3.149000000    -7.151000000
H     2.902000000    -4.072000000    -7.104000000
H     2.051000000    -3.026000000    -6.416000000
O     7.066000000    -1.048000000    -4.133000000
H     6.523000000    -1.822000000    -3.987000000
H     7.542000000    -1.238000000    -4.941000000
O     5.709000000    -0.228000000    -6.936000000
H     5.507000000    -1.147000000    -7.113000000
H     5.825000000    -0.188000000    -5.986000000
O     7.275000000    -4.932000000    -4.702000000
H     6.850000000    -5.738000000    -4.996000000
H     6.561000000    -4.400000000    -4.349000000
O     2.202000000    -7.602000000    -2.657000000
H     2.342000000    -7.687000000    -3.600000000
H     3.050000000    -7.818000000    -2.269000000
O     9.029000000    -3.338000000    -3.143000000
H     8.789000000    -4.106000000    -3.661000000
H     8.223000000    -3.097000000    -2.685000000
O     5.822000000    -6.460000000     0.428000000
H     5.311000000    -5.792000000     0.885000000
H     6.213000000    -6.983000000     1.128000000
O     1.446000000    -4.716000000    -5.186000000
H     1.205000000    -5.583000000    -4.860000000
H     1.555000000    -4.185000000    -4.397000000
O     4.419000000    -4.850000000    -3.399000000
H     3.637000000    -4.982000000    -3.935000000
H     4.110000000    -4.351000000    -2.643000000
O    -0.324000000    -5.598000000    -6.843000000
H     0.507000000    -5.399000000    -6.413000000
H    -0.948000000    -4.984000000    -6.456000000
O     5.910000000    -3.114000000     1.544000000
H     5.990000000    -2.621000000     2.361000000
H     6.808000000    -3.195000000     1.225000000
O     4.383000000    -2.362000000    -4.651000000
H     3.592000000    -1.897000000    -4.379000000
H     4.504000000    -3.039000000    -3.985000000
O     6.223000000    -2.029000000    -1.626000000
H     5.521000000    -2.659000000    -1.458000000
H     6.796000000    -2.100000000    -0.863000000
O     2.128000000    -5.895000000    -0.565000000
H     2.277000000    -6.462000000    -1.322000000
H     2.183000000    -5.006000000    -0.916000000
O     3.648000000    -4.435000000     1.486000000
H     2.884000000    -4.214000000     0.953000000
H     4.361000000    -3.921000000     1.107000000
O     2.730000000    -6.885000000     2.363000000
H     2.939000000    -6.041000000     1.964000000
H     2.641000000    -7.485000000     1.623000000
O     5.482000000    -7.576000000    -2.741000000
H     5.584000000    -6.738000000    -2.290000000
H     6.209000000    -7.603000000    -3.364000000
