215
-1444.04736
C    -4.565000000    -2.341000000    -1.954000000
H    -5.235000000    -1.599000000    -2.379000000
C    -4.042000000    -2.151000000    -0.675000000
C    -3.247000000    -3.145000000    -0.130000000
H    -2.904000000    -2.966000000     0.886000000
C    -4.094000000    -0.806000000     0.043000000
O    -4.891000000     0.101000000    -0.705000000
H    -3.069000000    -0.422000000     0.154000000
O    -4.484000000    -0.931000000     1.461000000
C    -3.725000000    -0.145000000     2.360000000
C    -2.764000000    -0.753000000     3.163000000
H    -2.754000000    -1.840000000     3.154000000
C    -1.978000000    -0.005000000     4.007000000
O    -1.075000000    -0.631000000     4.809000000
C    -2.157000000     1.382000000     4.094000000
C    -1.295000000     2.237000000     4.970000000
H    -1.715000000     3.241000000     5.054000000
C     0.134000000     2.463000000     4.437000000
C     0.276000000     3.620000000     3.641000000
H    -0.603000000     4.250000000     3.534000000
H    -1.341000000     1.879000000     6.000000000
C    -3.098000000     2.032000000     3.245000000
H    -3.247000000     3.108000000     3.285000000
C    -3.858000000     1.279000000     2.457000000
C    -4.855000000     1.982000000     1.520000000
H    -5.231000000     2.914000000     1.948000000
H    -5.696000000     1.292000000     1.430000000
C    -4.428000000     2.341000000     0.101000000
C    -3.791000000     3.570000000    -0.114000000
H    -3.639000000     4.277000000     0.698000000
C    -4.475000000     1.396000000    -0.923000000
C    -4.026000000     1.757000000    -2.186000000
H    -4.002000000     1.020000000    -2.985000000
C    -3.354000000     2.912000000    -2.332000000
O    -2.705000000     2.951000000    -3.490000000
C    -1.348000000     2.549000000    -3.373000000
C    -0.923000000     1.742000000    -4.563000000
C     0.404000000     1.775000000    -5.011000000
H     1.015000000     2.469000000    -4.440000000
C    -1.745000000     0.782000000    -5.098000000
H    -2.744000000     0.678000000    -4.683000000
O    -0.440000000     3.676000000    -3.233000000
H    -1.221000000     1.874000000    -2.513000000
C    -3.163000000     3.844000000    -1.308000000
C    -2.270000000     5.099000000    -1.450000000
H    -2.689000000     5.849000000    -0.776000000
H    -2.416000000     5.593000000    -2.413000000
C    -0.857000000     4.849000000    -1.120000000
C    -0.371000000     5.151000000     0.204000000
H    -1.093000000     5.578000000     0.895000000
C    -0.018000000     4.108000000    -2.034000000
C     1.258000000     3.658000000    -1.575000000
H     1.869000000     3.076000000    -2.261000000
C     1.753000000     4.020000000    -0.327000000
O     3.018000000     3.491000000    -0.113000000
C     3.090000000     2.391000000     0.826000000
C     4.113000000     1.326000000     0.321000000
C     4.307000000     1.138000000    -1.034000000
H     3.599000000     1.658000000    -1.675000000
C     4.883000000     0.571000000     1.221000000
H     4.922000000     0.851000000     2.271000000
O     3.464000000     2.921000000     2.146000000
H     2.122000000     1.879000000     0.928000000
C     0.960000000     4.724000000     0.622000000
C     1.495000000     5.065000000     2.028000000
H     0.783000000     5.793000000     2.424000000
H     2.507000000     5.475000000     2.018000000
C     1.467000000     3.875000000     3.014000000
C     2.497000000     2.959000000     3.073000000
C     2.412000000     1.868000000     3.892000000
H     3.279000000     1.212000000     3.891000000
C     1.225000000     1.649000000     4.661000000
O     1.072000000     0.431000000     5.125000000
C     0.296000000    -0.545000000     4.395000000
H     0.437000000    -0.402000000     3.314000000
C     0.979000000    -1.899000000     4.557000000
C     0.326000000    -3.054000000     4.083000000
H    -0.669000000    -2.979000000     3.651000000
C     2.377000000    -1.994000000     4.931000000
H     2.884000000    -1.158000000     5.405000000
C     2.963000000    -3.222000000     5.113000000
O     4.296000000    -3.219000000     5.377000000
C     2.252000000    -4.351000000     4.821000000
H     2.801000000    -5.288000000     4.849000000
C     1.023000000    -4.271000000     4.176000000
O     0.449000000    -5.471000000     3.783000000
C    -0.766000000    -5.635000000     3.105000000
C    -0.847000000    -5.267000000     1.716000000
H    -0.045000000    -4.927000000     1.066000000
C    -1.790000000    -6.207000000     3.838000000
H    -1.826000000    -6.249000000     4.923000000
C    -3.027000000    -6.347000000     3.198000000
H    -3.890000000    -6.677000000     3.770000000
C    -3.100000000    -6.163000000     1.802000000
H    -3.974000000    -6.479000000     1.238000000
C    -2.027000000    -5.607000000     1.055000000
O    -2.142000000    -5.381000000    -0.240000000
C    -2.924000000    -4.342000000    -0.790000000
C    -3.502000000    -4.506000000    -2.060000000
H    -3.239000000    -5.418000000    -2.591000000
C    -4.339000000    -3.542000000    -2.618000000
O    -4.746000000    -3.785000000    -3.904000000
C    -4.711000000    -2.777000000    -4.838000000
C    -3.422000000    -2.244000000    -5.191000000
H    -2.529000000    -2.553000000    -4.653000000
C    -5.883000000    -2.246000000    -5.450000000
H    -6.892000000    -2.629000000    -5.325000000
C    -5.684000000    -1.399000000    -6.524000000
H    -6.585000000    -0.934000000    -6.917000000
C    -4.457000000    -0.892000000    -6.849000000
H    -4.323000000    -0.150000000    -7.631000000
C    -3.313000000    -1.337000000    -6.204000000
O    -2.095000000    -0.973000000    -6.750000000
C    -1.279000000    -0.085000000    -6.118000000
C     0.066000000    -0.034000000    -6.624000000
H     0.421000000    -0.757000000    -7.354000000
C     0.843000000     0.963000000    -6.057000000
O     2.111000000     1.127000000    -6.478000000
C     3.279000000     1.196000000    -5.785000000
C     3.480000000     0.406000000    -4.666000000
H     2.784000000    -0.315000000    -4.245000000
C     4.256000000     2.127000000    -6.192000000
H     4.218000000     2.705000000    -7.112000000
C     5.405000000     2.266000000    -5.370000000
H     6.124000000     3.035000000    -5.641000000
C     5.602000000     1.501000000    -4.183000000
H     6.510000000     1.605000000    -3.594000000
C     4.623000000     0.528000000    -3.870000000
O     4.749000000    -0.363000000    -2.785000000
C     5.018000000     0.041000000    -1.480000000
C     5.628000000    -0.805000000    -0.642000000
H     6.125000000    -1.691000000    -1.029000000
C     5.562000000    -0.560000000     0.728000000
O     6.309000000    -1.396000000     1.479000000
C     6.278000000    -1.566000000     2.790000000
C     7.428000000    -1.358000000     3.499000000
H     8.291000000    -1.061000000     2.910000000
C     7.549000000    -1.672000000     4.841000000
H     8.439000000    -1.545000000     5.452000000
C     6.365000000    -2.105000000     5.449000000
H     6.411000000    -2.427000000     6.486000000
C     5.261000000    -2.493000000     4.722000000
C     5.152000000    -2.138000000     3.389000000
H     4.369000000    -2.555000000     2.761000000
C     1.919000000    -1.763000000    -0.226000000
H     2.796000000    -1.975000000     0.380000000
C     1.162000000    -0.765000000     0.373000000
H     1.530000000    -0.238000000     1.250000000
C    -0.050000000    -0.411000000    -0.210000000
H    -0.566000000     0.426000000     0.148000000
C    -0.579000000    -1.085000000    -1.291000000
H    -1.531000000    -0.871000000    -1.771000000
C     0.232000000    -2.113000000    -1.776000000
H    -0.200000000    -2.755000000    -2.539000000
C     1.420000000    -2.556000000    -1.232000000
C     2.119000000    -3.760000000    -1.673000000
O     1.780000000    -4.495000000    -2.590000000
O     3.138000000    -4.057000000    -1.108000000
O     5.534000000    -4.744000000    -1.791000000
H     4.723000000    -4.248000000    -1.684000000
H     5.450000000    -5.476000000    -1.179000000
O     2.912000000    -2.141000000    -7.639000000
H     2.602000000    -2.252000000    -6.740000000
H     2.318000000    -2.676000000    -8.165000000
O    -1.142000000    -7.571000000    -1.949000000
H    -0.622000000    -8.374000000    -1.979000000
H    -0.605000000    -6.957000000    -1.447000000
O     0.618000000    -9.415000000    -1.357000000
H     1.371000000    -8.929000000    -1.693000000
H     0.879000000    -9.682000000    -0.476000000
O     7.018000000    -1.677000000    -4.883000000
H     6.171000000    -2.120000000    -4.934000000
H     7.269000000    -1.535000000    -5.796000000
O     3.453000000    -8.460000000    -1.910000000
H     2.929000000    -7.809000000    -2.376000000
H     4.295000000    -8.029000000    -1.762000000
O     8.277000000    -3.652000000    -0.027000000
H     8.084000000    -3.610000000    -0.964000000
H     7.564000000    -4.174000000     0.341000000
O     5.914000000    -5.748000000    -4.794000000
H     6.110000000    -6.630000000    -4.479000000
H     5.856000000    -5.218000000    -3.999000000
O    -0.383000000    -5.273000000    -3.745000000
H    -0.831000000    -6.013000000    -3.335000000
H     0.198000000    -4.938000000    -3.063000000
O     2.984000000    -6.346000000    -4.098000000
H     2.599000000    -5.604000000    -3.631000000
H     3.877000000    -6.065000000    -4.299000000
O     1.945000000    -3.526000000    -5.232000000
H     1.703000000    -4.110000000    -4.513000000
H     1.297000000    -3.704000000    -5.914000000
O     7.701000000    -3.365000000    -2.752000000
H     7.704000000    -3.324000000    -3.709000000
H     6.830000000    -3.695000000    -2.530000000
O     2.706000000    -7.997000000    -6.116000000
H     2.995000000    -7.532000000    -5.331000000
H     2.247000000    -7.334000000    -6.632000000
O     4.590000000    -2.936000000    -4.356000000
H     3.765000000    -3.162000000    -4.786000000
H     4.331000000    -2.410000000    -3.600000000
O     1.340000000    -6.551000000    -0.889000000
H     1.521000000    -6.177000000    -0.027000000
H     1.599000000    -5.867000000    -1.507000000
O     3.554000000    -4.520000000     1.403000000
H     2.755000000    -4.018000000     1.563000000
H     3.641000000    -4.535000000     0.449000000
O    -0.607000000    -4.594000000    -6.408000000
H    -0.711000000    -4.926000000    -5.517000000
H    -1.471000000    -4.701000000    -6.806000000
O     5.334000000    -7.312000000    -0.527000000
H     4.693000000    -7.968000000    -0.252000000
H     6.059000000    -7.413000000     0.089000000
O     4.676000000    -6.365000000     2.929000000
H     4.233000000    -7.116000000     2.535000000
H     4.281000000    -5.603000000     2.505000000
