215
-1486.86058
C    -3.176000000    -2.636000000    -2.553000000
H    -3.431000000    -1.892000000    -3.303000000
C    -3.458000000    -2.387000000    -1.236000000
C    -3.056000000    -3.278000000    -0.245000000
H    -3.120000000    -3.077000000     0.821000000
C    -3.914000000    -0.981000000    -0.832000000
O    -4.695000000    -0.180000000    -1.834000000
H    -3.017000000    -0.370000000    -0.652000000
O    -4.606000000    -1.071000000     0.457000000
C    -4.119000000    -0.312000000     1.436000000
C    -3.456000000    -0.831000000     2.510000000
H    -3.251000000    -1.885000000     2.681000000
C    -2.865000000    -0.023000000     3.445000000
O    -2.089000000    -0.720000000     4.418000000
C    -3.078000000     1.349000000     3.398000000
C    -2.539000000     2.258000000     4.483000000
H    -3.031000000     3.232000000     4.435000000
C    -1.100000000     2.554000000     4.141000000
C    -0.794000000     3.565000000     3.251000000
H    -1.495000000     4.255000000     2.788000000
H    -2.715000000     1.776000000     5.447000000
C    -3.807000000     1.918000000     2.393000000
H    -3.985000000     2.988000000     2.326000000
C    -4.280000000     1.099000000     1.352000000
C    -5.148000000     1.753000000     0.308000000
H    -5.686000000     2.618000000     0.702000000
H    -5.886000000     1.005000000     0.008000000
C    -4.355000000     2.048000000    -0.935000000
C    -3.777000000     3.318000000    -1.126000000
H    -3.678000000     4.016000000    -0.298000000
C    -4.254000000     1.137000000    -1.984000000
C    -3.584000000     1.482000000    -3.164000000
H    -3.472000000     0.723000000    -3.934000000
C    -2.863000000     2.642000000    -3.219000000
O    -1.995000000     2.807000000    -4.305000000
C    -0.569000000     2.548000000    -4.020000000
C     0.110000000     1.759000000    -5.109000000
C     1.471000000     1.961000000    -5.317000000
H     1.878000000     2.888000000    -4.922000000
C    -0.474000000     0.657000000    -5.741000000
H    -1.540000000     0.538000000    -5.566000000
O     0.124000000     3.829000000    -3.665000000
H    -0.508000000     1.830000000    -3.189000000
C    -3.015000000     3.682000000    -2.290000000
C    -2.213000000     4.876000000    -2.316000000
H    -2.649000000     5.759000000    -1.845000000
H    -2.194000000     5.244000000    -3.344000000
C    -0.852000000     4.736000000    -1.645000000
C    -0.678000000     5.067000000    -0.283000000
H    -1.424000000     5.633000000     0.268000000
C     0.207000000     4.137000000    -2.303000000
C     1.441000000     3.846000000    -1.662000000
H     2.197000000     3.425000000    -2.320000000
C     1.611000000     4.153000000    -0.315000000
O     2.769000000     3.662000000     0.275000000
C     2.660000000     2.534000000     1.186000000
C     3.763000000     1.466000000     0.943000000
C     3.982000000     1.142000000    -0.385000000
H     3.364000000     1.552000000    -1.180000000
C     4.335000000     0.737000000     1.982000000
H     3.979000000     0.925000000     2.992000000
O     2.712000000     2.987000000     2.539000000
H     1.667000000     2.098000000     1.004000000
C     0.535000000     4.750000000     0.444000000
C     0.810000000     5.029000000     1.887000000
H     0.255000000     5.898000000     2.246000000
H     1.855000000     5.298000000     2.054000000
C     0.470000000     3.832000000     2.832000000
C     1.513000000     2.976000000     3.202000000
C     1.284000000     1.947000000     4.081000000
H     2.087000000     1.371000000     4.534000000
C    -0.058000000     1.693000000     4.516000000
O    -0.206000000     0.485000000     5.184000000
C    -0.654000000    -0.592000000     4.394000000
H    -0.382000000    -0.383000000     3.348000000
C     0.072000000    -1.842000000     4.802000000
C    -0.525000000    -3.051000000     4.651000000
H    -1.575000000    -3.085000000     4.372000000
C     1.404000000    -1.831000000     5.263000000
H     1.920000000    -0.887000000     5.422000000
C     2.131000000    -3.035000000     5.576000000
O     3.369000000    -2.959000000     6.191000000
C     1.435000000    -4.166000000     5.467000000
H     1.899000000    -5.073000000     5.846000000
C     0.106000000    -4.194000000     4.989000000
O    -0.504000000    -5.435000000     4.769000000
C    -1.542000000    -5.570000000     3.865000000
C    -1.313000000    -5.450000000     2.520000000
H    -0.327000000    -5.174000000     2.157000000
C    -2.806000000    -5.799000000     4.305000000
H    -2.925000000    -5.878000000     5.382000000
C    -3.915000000    -5.882000000     3.466000000
H    -4.914000000    -6.022000000     3.870000000
C    -3.720000000    -5.766000000     2.106000000
H    -4.511000000    -5.948000000     1.383000000
C    -2.397000000    -5.539000000     1.627000000
O    -2.177000000    -5.577000000     0.237000000
C    -2.562000000    -4.563000000    -0.637000000
C    -2.374000000    -4.872000000    -1.968000000
H    -1.974000000    -5.837000000    -2.267000000
C    -2.618000000    -3.875000000    -2.913000000
O    -2.503000000    -4.336000000    -4.210000000
C    -2.591000000    -3.462000000    -5.249000000
C    -1.505000000    -2.650000000    -5.619000000
H    -0.541000000    -2.696000000    -5.119000000
C    -3.703000000    -3.481000000    -6.094000000
H    -4.540000000    -4.147000000    -5.900000000
C    -3.746000000    -2.744000000    -7.310000000
H    -4.621000000    -2.775000000    -7.954000000
C    -2.602000000    -1.960000000    -7.668000000
H    -2.593000000    -1.453000000    -8.630000000
C    -1.500000000    -1.899000000    -6.811000000
O    -0.400000000    -1.165000000    -7.266000000
C     0.247000000    -0.182000000    -6.647000000
C     1.592000000     0.016000000    -6.771000000
H     2.211000000    -0.628000000    -7.391000000
C     2.173000000     1.061000000    -6.075000000
O     3.517000000     1.341000000    -6.199000000
C     4.282000000     1.653000000    -5.083000000
C     4.353000000     0.599000000    -4.164000000
H     3.673000000    -0.247000000    -4.223000000
C     5.127000000     2.745000000    -5.028000000
H     5.191000000     3.492000000    -5.815000000
C     5.934000000     2.907000000    -3.929000000
H     6.563000000     3.788000000    -3.831000000
C     5.950000000     1.947000000    -2.902000000
H     6.571000000     2.035000000    -2.014000000
C     5.135000000     0.814000000    -3.022000000
O     5.168000000    -0.179000000    -2.020000000
C     4.862000000     0.112000000    -0.703000000
C     5.404000000    -0.669000000     0.345000000
H     5.998000000    -1.554000000     0.129000000
C     5.224000000    -0.235000000     1.664000000
O     5.901000000    -0.950000000     2.631000000
C     5.603000000    -0.992000000     3.926000000
C     6.574000000    -0.620000000     4.865000000
H     7.449000000    -0.032000000     4.598000000
C     6.325000000    -0.886000000     6.235000000
H     7.095000000    -0.557000000     6.928000000
C     5.225000000    -1.618000000     6.699000000
H     5.181000000    -1.919000000     7.743000000
C     4.309000000    -2.091000000     5.753000000
C     4.525000000    -1.779000000     4.328000000
H     3.876000000    -2.220000000     3.576000000
C    -0.074000000    -2.344000000     0.133000000
H    -0.266000000    -2.983000000     0.991000000
C    -0.234000000    -0.989000000     0.369000000
H    -0.738000000    -0.553000000     1.228000000
C     0.144000000    -0.048000000    -0.628000000
H     0.147000000     1.009000000    -0.320000000
C     0.721000000    -0.507000000    -1.781000000
H     0.958000000     0.235000000    -2.538000000
C     0.960000000    -1.836000000    -1.996000000
H     1.516000000    -2.154000000    -2.875000000
C     0.483000000    -2.791000000    -1.070000000
C     0.638000000    -4.281000000    -1.361000000
O     0.779000000    -4.691000000    -2.479000000
O     0.962000000    -4.957000000    -0.379000000
O     5.163000000    -4.565000000    -0.014000000
H     4.396000000    -4.193000000     0.421000000
H     4.800000000    -5.127000000    -0.699000000
O     3.667000000    -2.663000000    -5.126000000
H     3.995000000    -2.776000000    -4.234000000
H     2.997000000    -3.339000000    -5.223000000
O    -1.893000000    -9.066000000    -0.451000000
H    -1.699000000    -9.205000000     0.476000000
H    -1.166000000    -8.531000000    -0.771000000
O    -0.719000000    -9.896000000    -3.478000000
H     0.140000000    -9.578000000    -3.200000000
H    -1.096000000   -10.286000000    -2.690000000
O     5.347000000    -7.794000000    -1.084000000
H     4.758000000    -7.251000000    -1.609000000
H     6.224000000    -7.561000000    -1.391000000
O    -0.269000000    -6.805000000    -3.718000000
H     0.363000000    -7.511000000    -3.583000000
H     0.078000000    -6.073000000    -3.208000000
O     3.091000000    -6.292000000    -1.858000000
H     2.780000000    -6.063000000    -2.734000000
H     2.373000000    -6.042000000    -1.276000000
O     1.924000000    -4.693000000    -4.896000000
H     1.571000000    -4.595000000    -4.011000000
H     1.237000000    -5.152000000    -5.378000000
O    -4.016000000    -7.535000000    -4.239000000
H    -3.642000000    -8.391000000    -4.031000000
H    -3.269000000    -7.010000000    -4.526000000
O    -0.023000000    -6.060000000    -6.436000000
H     0.164000000    -6.984000000    -6.600000000
H    -0.532000000    -6.059000000    -5.625000000
O     4.781000000    -2.923000000    -2.805000000
H     5.702000000    -2.950000000    -2.546000000
H     4.322000000    -2.606000000    -2.028000000
O     3.110000000    -2.387000000     1.030000000
H     3.595000000    -1.569000000     1.138000000
H     2.578000000    -2.249000000     0.247000000
O     2.898000000    -8.953000000     0.774000000
H     2.037000000    -8.738000000     0.414000000
H     3.443000000    -8.196000000     0.559000000
O     1.442000000    -8.665000000    -2.669000000
H     2.391000000    -8.569000000    -2.749000000
H     1.260000000    -8.489000000    -1.745000000
O     0.571000000    -7.662000000    -0.208000000
H     0.141000000    -7.947000000     0.598000000
H     0.436000000    -6.715000000    -0.230000000
O     2.747000000    -5.255000000     1.605000000
H     2.026000000    -5.256000000     0.975000000
H     2.700000000    -4.394000000     2.021000000
O     0.058000000    -8.922000000     2.223000000
H     0.684000000    -8.497000000     2.809000000
H    -0.211000000    -9.712000000     2.691000000
O     3.569000000    -6.813000000    -4.870000000
H     3.007000000    -6.041000000    -4.801000000
H     3.313000000    -7.224000000    -5.696000000
O     4.685000000    -6.932000000     1.771000000
H     3.839000000    -6.486000000     1.807000000
H     5.067000000    -6.655000000     0.939000000
