215
-1434.54844
C     3.944000000     2.440000000    -3.102000000
H     4.009000000     1.427000000    -3.490000000
C     3.974000000     2.537000000    -1.682000000
C     3.787000000     3.791000000    -1.139000000
H     3.873000000     3.921000000    -0.063000000
C     3.972000000     1.371000000    -0.723000000
O     4.741000000     0.324000000    -1.302000000
H     2.917000000     1.133000000    -0.522000000
O     4.635000000     1.699000000     0.542000000
C     4.076000000     1.131000000     1.684000000
C     3.223000000     1.897000000     2.488000000
H     3.186000000     2.982000000     2.436000000
C     2.540000000     1.238000000     3.459000000
O     1.647000000     1.972000000     4.056000000
C     2.783000000    -0.086000000     3.785000000
C     2.081000000    -0.744000000     4.991000000
H     2.801000000    -1.460000000     5.391000000
C     0.739000000    -1.353000000     4.534000000
C     0.596000000    -2.705000000     4.195000000
H     1.443000000    -3.381000000     4.279000000
H     1.939000000    -0.044000000     5.817000000
C     3.780000000    -0.785000000     3.134000000
H     3.986000000    -1.822000000     3.383000000
C     4.359000000    -0.174000000     2.037000000
C     5.290000000    -1.078000000     1.269000000
H     5.845000000    -1.852000000     1.803000000
H     6.114000000    -0.497000000     0.848000000
C     4.503000000    -1.650000000     0.150000000
C     3.933000000    -2.903000000     0.234000000
H     4.204000000    -3.446000000     1.136000000
C     4.302000000    -0.939000000    -1.052000000
C     3.514000000    -1.494000000    -2.056000000
H     3.197000000    -0.872000000    -2.888000000
C     2.887000000    -2.679000000    -1.892000000
O     2.061000000    -3.176000000    -2.900000000
C     0.671000000    -3.035000000    -2.739000000
C    -0.085000000    -2.552000000    -3.967000000
C    -1.374000000    -2.962000000    -4.338000000
H    -1.952000000    -3.649000000    -3.724000000
C     0.550000000    -1.484000000    -4.622000000
H     1.471000000    -1.074000000    -4.216000000
O     0.127000000    -4.315000000    -2.285000000
H     0.632000000    -2.244000000    -1.975000000
C     3.197000000    -3.396000000    -0.765000000
C     2.428000000    -4.767000000    -0.564000000
H     2.951000000    -5.376000000     0.176000000
H     2.525000000    -5.350000000    -1.482000000
C     1.026000000    -4.748000000    -0.071000000
C     0.746000000    -4.919000000     1.312000000
H     1.644000000    -4.917000000     1.926000000
C    -0.056000000    -4.577000000    -0.953000000
C    -1.368000000    -4.566000000    -0.464000000
H    -2.250000000    -4.389000000    -1.074000000
C    -1.546000000    -4.620000000     0.901000000
O    -2.797000000    -4.178000000     1.313000000
C    -2.866000000    -2.773000000     1.674000000
C    -3.955000000    -1.965000000     1.111000000
C    -4.538000000    -2.371000000    -0.096000000
H    -4.284000000    -3.210000000    -0.738000000
C    -4.547000000    -0.811000000     1.749000000
H    -4.099000000    -0.334000000     2.618000000
O    -2.864000000    -2.701000000     3.122000000
H    -2.025000000    -2.172000000     1.298000000
C    -0.508000000    -4.838000000     1.834000000
C    -0.738000000    -4.707000000     3.302000000
H    -0.061000000    -5.431000000     3.760000000
H    -1.777000000    -4.979000000     3.497000000
C    -0.604000000    -3.261000000     3.740000000
C    -1.717000000    -2.363000000     3.714000000
C    -1.655000000    -1.067000000     4.153000000
H    -2.487000000    -0.371000000     4.089000000
C    -0.428000000    -0.563000000     4.579000000
O    -0.335000000     0.845000000     4.754000000
C     0.292000000     1.683000000     3.798000000
H     0.278000000     1.121000000     2.852000000
C    -0.510000000     2.983000000     3.641000000
C     0.037000000     3.992000000     2.832000000
H     1.071000000     4.015000000     2.499000000
C    -1.853000000     3.033000000     3.943000000
H    -2.460000000     2.271000000     4.424000000
C    -2.582000000     4.192000000     3.594000000
O    -3.886000000     4.301000000     3.988000000
C    -1.959000000     5.287000000     2.968000000
H    -2.449000000     6.223000000     2.711000000
C    -0.664000000     5.174000000     2.613000000
O    -0.111000000     6.181000000     1.897000000
C     1.212000000     6.435000000     1.600000000
C     1.713000000     6.148000000     0.311000000
H     0.989000000     5.658000000    -0.335000000
C     2.055000000     6.931000000     2.541000000
H     1.662000000     7.148000000     3.531000000
C     3.408000000     7.067000000     2.246000000
H     4.091000000     7.334000000     3.048000000
C     3.918000000     6.770000000     0.992000000
H     4.969000000     6.926000000     0.765000000
C     3.049000000     6.345000000     0.023000000
O     3.628000000     6.062000000    -1.296000000
C     3.580000000     4.894000000    -1.923000000
C     3.697000000     4.840000000    -3.292000000
H     3.697000000     5.787000000    -3.827000000
C     3.844000000     3.622000000    -3.937000000
O     3.659000000     3.516000000    -5.321000000
C     3.279000000     2.293000000    -5.993000000
C     1.983000000     1.868000000    -5.754000000
H     1.300000000     2.366000000    -5.070000000
C     4.156000000     1.504000000    -6.690000000
H     5.142000000     1.874000000    -6.959000000
C     3.763000000     0.325000000    -7.298000000
H     4.398000000    -0.364000000    -7.850000000
C     2.491000000    -0.077000000    -7.207000000
H     2.323000000    -1.066000000    -7.626000000
C     1.612000000     0.646000000    -6.414000000
O     0.334000000     0.235000000    -6.329000000
C    -0.076000000    -0.962000000    -5.766000000
C    -1.331000000    -1.393000000    -6.157000000
H    -1.801000000    -0.938000000    -7.025000000
C    -2.006000000    -2.413000000    -5.454000000
O    -3.317000000    -2.636000000    -5.760000000
C    -4.210000000    -3.183000000    -4.890000000
C    -4.811000000    -2.301000000    -3.961000000
H    -4.599000000    -1.242000000    -4.087000000
C    -4.408000000    -4.585000000    -4.730000000
H    -3.815000000    -5.198000000    -5.404000000
C    -5.305000000    -5.074000000    -3.700000000
H    -5.391000000    -6.142000000    -3.512000000
C    -5.804000000    -4.170000000    -2.755000000
H    -6.321000000    -4.532000000    -1.870000000
C    -5.561000000    -2.782000000    -2.872000000
O    -6.111000000    -1.887000000    -1.956000000
C    -5.561000000    -1.555000000    -0.629000000
C    -6.129000000    -0.476000000     0.040000000
H    -6.994000000     0.022000000    -0.392000000
C    -5.737000000    -0.181000000     1.338000000
O    -6.467000000     0.817000000     2.022000000
C    -5.991000000     1.413000000     3.132000000
C    -6.542000000     1.061000000     4.376000000
H    -7.368000000     0.354000000     4.352000000
C    -6.129000000     1.796000000     5.473000000
H    -6.567000000     1.487000000     6.419000000
C    -5.229000000     2.833000000     5.343000000
H    -4.902000000     3.366000000     6.231000000
C    -4.756000000     3.233000000     4.127000000
C    -5.134000000     2.511000000     2.967000000
H    -4.698000000     2.713000000     1.991000000
C    -2.095000000     0.474000000    -0.974000000
H    -3.048000000    -0.032000000    -1.113000000
C    -1.027000000    -0.389000000    -0.752000000
H    -1.217000000    -1.459000000    -0.747000000
C     0.183000000     0.199000000    -0.353000000
H     1.110000000    -0.419000000    -0.157000000
C     0.212000000     1.522000000    -0.035000000
H     1.097000000     1.990000000     0.390000000
C    -0.879000000     2.335000000    -0.183000000
H    -0.781000000     3.383000000     0.087000000
C    -2.083000000     1.877000000    -0.723000000
C    -3.289000000     2.728000000    -0.853000000
O    -3.211000000     3.948000000    -1.040000000
O    -4.336000000     2.162000000    -0.940000000
O    -4.202000000     7.807000000     2.075000000
H    -4.448000000     8.623000000     1.640000000
H    -4.848000000     7.703000000     2.773000000
O    -5.278000000     8.395000000    -1.455000000
H    -4.976000000     8.754000000    -0.621000000
H    -5.305000000     7.449000000    -1.313000000
O    -5.265000000     5.737000000     0.362000000
H    -4.792000000     6.482000000     0.732000000
H    -4.579000000     5.114000000     0.120000000
O    -1.386000000     8.133000000    -2.349000000
H    -1.858000000     7.570000000    -1.735000000
H    -1.088000000     7.539000000    -3.038000000
O    -3.898000000     4.395000000    -3.485000000
H    -3.499000000     3.608000000    -3.858000000
H    -3.708000000     4.338000000    -2.548000000
O    -6.036000000     4.053000000    -5.435000000
H    -5.209000000     3.951000000    -4.965000000
H    -6.648000000     3.483000000    -4.969000000
O    -5.426000000     1.558000000    -3.254000000
H    -6.133000000     0.970000000    -2.990000000
H    -5.039000000     1.853000000    -2.430000000
O    -6.872000000     3.233000000    -0.813000000
H    -6.172000000     2.656000000    -0.510000000
H    -6.445000000     4.080000000    -0.943000000
O    -9.381000000     2.839000000    -2.023000000
H    -8.595000000     3.312000000    -1.750000000
H   -10.085000000     3.224000000    -1.502000000
O    -7.532000000     4.352000000     1.535000000
H    -7.434000000     3.629000000     0.916000000
H    -6.902000000     5.009000000     1.239000000
O    -5.761000000     6.685000000    -3.660000000
H    -5.279000000     7.266000000    -3.072000000
H    -5.183000000     5.931000000    -3.780000000
O    -5.914000000     6.638000000     4.265000000
H    -5.277000000     5.929000000     4.173000000
H    -5.728000000     7.017000000     5.124000000
O    -2.613000000     6.512000000    -0.717000000
H    -1.930000000     6.523000000    -0.046000000
H    -2.844000000     5.588000000    -0.809000000
O    -3.406000000     2.049000000    -4.833000000
H    -3.937000000     1.780000000    -5.583000000
H    -3.977000000     1.916000000    -4.076000000
O    -8.888000000     5.096000000    -4.167000000
H    -8.811000000     4.170000000    -4.400000000
H    -7.985000000     5.390000000    -4.053000000
O    -8.656000000     2.474000000    -4.587000000
H    -8.745000000     2.272000000    -3.656000000
H    -9.553000000     2.456000000    -4.922000000
O    -1.134000000     5.940000000    -4.020000000
H    -0.576000000     5.166000000    -4.092000000
H    -1.973000000     5.603000000    -3.706000000
O    -9.690000000     1.725000000     2.305000000
H    -9.723000000     0.774000000     2.405000000
H    -8.837000000     1.895000000     1.906000000
O    -1.053000000     2.899000000    -4.057000000
H    -1.847000000     2.650000000    -4.531000000
H    -0.840000000     2.132000000    -3.527000000
