215
-1461.21990
C    -3.894000000    -2.118000000    -2.070000000
H    -3.711000000    -1.178000000    -2.584000000
C    -4.230000000    -2.068000000    -0.710000000
C    -4.280000000    -3.260000000     0.022000000
H    -4.723000000    -3.291000000     1.014000000
C    -4.247000000    -0.669000000    -0.079000000
O    -5.064000000     0.294000000    -0.855000000
H    -3.194000000    -0.351000000    -0.039000000
O    -4.738000000    -0.771000000     1.308000000
C    -3.989000000    -0.198000000     2.264000000
C    -3.144000000    -0.950000000     3.057000000
H    -3.121000000    -2.034000000     2.976000000
C    -2.400000000    -0.378000000     4.048000000
O    -1.476000000    -1.191000000     4.668000000
C    -2.451000000     1.031000000     4.265000000
C    -1.499000000     1.878000000     5.163000000
H    -1.896000000     2.876000000     5.358000000
C    -0.106000000     2.097000000     4.542000000
C     0.028000000     3.238000000     3.702000000
H    -0.804000000     3.918000000     3.541000000
H    -1.413000000     1.345000000     6.112000000
C    -3.330000000     1.777000000     3.500000000
H    -3.422000000     2.846000000     3.672000000
C    -4.069000000     1.224000000     2.422000000
C    -4.929000000     2.104000000     1.450000000
H    -5.169000000     3.056000000     1.927000000
H    -5.923000000     1.656000000     1.387000000
C    -4.314000000     2.431000000     0.107000000
C    -3.502000000     3.570000000    -0.049000000
H    -3.275000000     4.275000000     0.747000000
C    -4.569000000     1.572000000    -1.005000000
C    -4.041000000     1.933000000    -2.246000000
H    -4.223000000     1.276000000    -3.093000000
C    -3.169000000     3.030000000    -2.386000000
O    -2.409000000     3.002000000    -3.490000000
C    -0.973000000     2.649000000    -3.420000000
C    -0.464000000     1.896000000    -4.639000000
C     0.944000000     1.958000000    -4.898000000
H     1.633000000     2.498000000    -4.254000000
C    -1.242000000     1.152000000    -5.464000000
H    -2.270000000     1.103000000    -5.112000000
O    -0.091000000     3.808000000    -3.194000000
H    -0.832000000     2.050000000    -2.508000000
C    -2.837000000     3.804000000    -1.277000000
C    -2.053000000     5.085000000    -1.392000000
H    -2.465000000     5.851000000    -0.730000000
H    -2.113000000     5.340000000    -2.452000000
C    -0.678000000     4.671000000    -0.966000000
C    -0.287000000     4.882000000     0.303000000
H    -1.044000000     5.319000000     0.949000000
C     0.257000000     4.099000000    -1.878000000
C     1.610000000     3.916000000    -1.502000000
H     2.384000000     3.664000000    -2.223000000
C     1.915000000     3.952000000    -0.167000000
O     3.173000000     3.577000000     0.168000000
C     3.288000000     2.400000000     0.952000000
C     4.451000000     1.478000000     0.447000000
C     4.696000000     1.320000000    -0.939000000
H     3.975000000     1.850000000    -1.555000000
C     5.122000000     0.672000000     1.365000000
H     4.988000000     0.857000000     2.428000000
O     3.353000000     2.718000000     2.349000000
H     2.352000000     1.827000000     0.871000000
C     1.033000000     4.528000000     0.740000000
C     1.379000000     4.737000000     2.156000000
H     0.682000000     5.518000000     2.469000000
H     2.379000000     5.165000000     2.252000000
C     1.181000000     3.517000000     3.014000000
C     2.199000000     2.549000000     3.109000000
C     2.015000000     1.353000000     3.790000000
H     2.851000000     0.661000000     3.852000000
C     0.873000000     1.083000000     4.461000000
O     0.590000000    -0.161000000     4.979000000
C    -0.119000000    -1.054000000     4.158000000
H    -0.238000000    -0.654000000     3.140000000
C     0.640000000    -2.394000000     3.935000000
C    -0.084000000    -3.460000000     3.432000000
H    -1.137000000    -3.374000000     3.180000000
C     1.986000000    -2.637000000     4.372000000
H     2.486000000    -1.817000000     4.881000000
C     2.579000000    -3.874000000     4.080000000
O     3.914000000    -4.055000000     4.395000000
C     1.863000000    -4.898000000     3.571000000
H     2.259000000    -5.893000000     3.387000000
C     0.453000000    -4.742000000     3.371000000
O    -0.189000000    -5.852000000     2.874000000
C    -1.527000000    -5.917000000     2.733000000
C    -2.133000000    -5.657000000     1.514000000
H    -1.523000000    -5.418000000     0.647000000
C    -2.224000000    -6.317000000     3.854000000
H    -1.645000000    -6.649000000     4.712000000
C    -3.595000000    -6.470000000     3.775000000
H    -4.102000000    -6.954000000     4.606000000
C    -4.236000000    -6.236000000     2.576000000
H    -5.312000000    -6.312000000     2.440000000
C    -3.558000000    -5.813000000     1.406000000
O    -4.201000000    -5.525000000     0.243000000
C    -3.961000000    -4.460000000    -0.586000000
C    -3.606000000    -4.539000000    -1.923000000
H    -3.507000000    -5.514000000    -2.394000000
C    -3.570000000    -3.364000000    -2.699000000
O    -3.199000000    -3.444000000    -4.019000000
C    -3.383000000    -2.578000000    -5.094000000
C    -2.313000000    -2.071000000    -5.784000000
H    -1.280000000    -2.287000000    -5.525000000
C    -4.720000000    -2.198000000    -5.410000000
H    -5.593000000    -2.547000000    -4.865000000
C    -4.908000000    -1.252000000    -6.422000000
H    -5.897000000    -0.865000000    -6.651000000
C    -3.793000000    -0.598000000    -7.053000000
H    -3.951000000     0.231000000    -7.738000000
C    -2.512000000    -1.045000000    -6.740000000
O    -1.461000000    -0.368000000    -7.292000000
C    -0.703000000     0.452000000    -6.524000000
C     0.650000000     0.486000000    -6.765000000
H     1.145000000    -0.115000000    -7.524000000
C     1.482000000     1.228000000    -5.928000000
O     2.845000000     1.040000000    -6.163000000
C     3.765000000     1.571000000    -5.288000000
C     4.413000000     0.714000000    -4.428000000
H     3.996000000    -0.250000000    -4.146000000
C     4.304000000     2.828000000    -5.542000000
H     3.847000000     3.481000000    -6.281000000
C     5.426000000     3.323000000    -4.772000000
H     5.807000000     4.304000000    -5.046000000
C     5.923000000     2.541000000    -3.747000000
H     6.686000000     2.906000000    -3.063000000
C     5.446000000     1.191000000    -3.690000000
O     6.029000000     0.374000000    -2.756000000
C     5.722000000     0.542000000    -1.422000000
C     6.399000000    -0.239000000    -0.451000000
H     7.068000000    -1.025000000    -0.791000000
C     6.025000000    -0.250000000     0.886000000
O     6.643000000    -1.034000000     1.776000000
C     6.129000000    -1.587000000     2.972000000
C     6.788000000    -1.170000000     4.131000000
H     7.662000000    -0.532000000     4.027000000
C     6.488000000    -1.704000000     5.328000000
H     6.889000000    -1.335000000     6.269000000
C     5.486000000    -2.684000000     5.392000000
H     5.189000000    -3.122000000     6.342000000
C     4.795000000    -3.063000000     4.232000000
C     5.110000000    -2.525000000     3.040000000
H     4.583000000    -2.797000000     2.129000000
C     1.184000000    -1.194000000     0.298000000
H     1.944000000    -1.491000000     1.017000000
C     0.440000000     0.038000000     0.401000000
H     0.668000000     0.734000000     1.204000000
C    -0.543000000     0.366000000    -0.502000000
H    -1.122000000     1.313000000    -0.340000000
C    -0.881000000    -0.494000000    -1.536000000
H    -1.567000000    -0.187000000    -2.321000000
C    -0.206000000    -1.734000000    -1.667000000
H    -0.416000000    -2.370000000    -2.523000000
C     0.838000000    -2.070000000    -0.732000000
C     1.547000000    -3.391000000    -0.898000000
O     1.279000000    -4.144000000    -1.882000000
O     2.168000000    -3.983000000    -0.001000000
O     7.089000000    -3.310000000    -2.821000000
H     6.277000000    -2.807000000    -2.889000000
H     7.085000000    -3.650000000    -1.926000000
O     3.681000000    -1.706000000    -6.713000000
H     2.886000000    -1.352000000    -6.315000000
H     3.566000000    -2.655000000    -6.675000000
O     0.101000000    -9.063000000     0.190000000
H    -0.788000000    -9.150000000     0.534000000
H     0.326000000    -8.144000000     0.339000000
O     3.817000000    -8.157000000    -2.269000000
H     3.043000000    -8.660000000    -2.520000000
H     4.356000000    -8.776000000    -1.777000000
O     7.452000000    -3.891000000     0.009000000
H     7.750000000    -3.877000000     0.918000000
H     7.402000000    -4.822000000    -0.212000000
O     7.066000000    -6.334000000    -2.892000000
H     6.818000000    -6.450000000    -1.975000000
H     6.772000000    -5.449000000    -3.109000000
O     0.125000000    -6.448000000    -3.090000000
H    -0.139000000    -6.758000000    -2.224000000
H     0.811000000    -5.804000000    -2.915000000
O     3.787000000    -5.109000000    -1.968000000
H     3.700000000    -6.061000000    -2.030000000
H     2.916000000    -4.806000000    -1.712000000
O     1.748000000    -2.869000000    -4.366000000
H     1.501000000    -3.246000000    -3.521000000
H     1.467000000    -3.519000000    -5.010000000
O    -2.156000000    -6.986000000    -4.464000000
H    -2.125000000    -7.934000000    -4.339000000
H    -1.322000000    -6.671000000    -4.117000000
O     4.329000000    -3.491000000    -4.136000000
H     4.250000000    -4.273000000    -3.589000000
H     3.436000000    -3.152000000    -4.197000000
O     3.268000000    -7.964000000     0.687000000
H     3.786000000    -7.227000000     1.012000000
H     2.608000000    -7.562000000     0.122000000
O     0.976000000    -6.325000000     0.231000000
H     0.631000000    -5.953000000     1.042000000
H     1.444000000    -5.600000000    -0.185000000
O     4.262000000    -5.375000000     1.099000000
H     4.973000000    -4.949000000     0.620000000
H     3.474000000    -4.907000000     0.824000000
O     1.816000000    -9.069000000     2.919000000
H     2.529000000    -9.508000000     3.384000000
H     2.196000000    -8.825000000     2.075000000
O     0.077000000    -4.854000000    -6.187000000
H    -0.249000000    -5.190000000    -5.352000000
H    -0.624000000    -5.041000000    -6.811000000
O     2.997000000    -4.401000000    -6.783000000
H     3.356000000    -5.209000000    -6.416000000
H     2.069000000    -4.592000000    -6.918000000
O     0.686000000    -8.475000000    -4.761000000
H     0.676000000    -7.713000000    -4.181000000
H    -0.225000000    -8.768000000    -4.787000000
O     5.041000000    -6.486000000     3.495000000
H     4.225000000    -6.687000000     3.952000000
H     4.766000000    -6.010000000     2.711000000
