215
-1432.19531
C    -4.209000000    -2.542000000    -0.884000000
H    -4.227000000    -1.903000000    -1.763000000
C    -4.278000000    -2.113000000     0.408000000
C    -4.348000000    -3.002000000     1.482000000
H    -4.501000000    -2.714000000     2.519000000
C    -4.216000000    -0.631000000     0.666000000
O    -5.101000000     0.204000000    -0.206000000
H    -3.140000000    -0.411000000     0.604000000
O    -4.713000000    -0.226000000     2.004000000
C    -3.826000000     0.525000000     2.736000000
C    -2.801000000    -0.045000000     3.449000000
H    -2.820000000    -1.125000000     3.572000000
C    -1.793000000     0.676000000     4.128000000
O    -0.741000000     0.045000000     4.803000000
C    -1.870000000     2.066000000     4.050000000
C    -0.793000000     3.041000000     4.527000000
H    -1.054000000     4.082000000     4.732000000
C     0.437000000     3.073000000     3.655000000
C     0.620000000     4.100000000     2.708000000
H    -0.166000000     4.795000000     2.423000000
H    -0.541000000     2.697000000     5.532000000
C    -2.901000000     2.646000000     3.266000000
H    -2.844000000     3.709000000     3.046000000
C    -3.868000000     1.921000000     2.566000000
C    -4.845000000     2.636000000     1.586000000
H    -4.974000000     3.676000000     1.894000000
H    -5.810000000     2.131000000     1.650000000
C    -4.436000000     2.551000000     0.109000000
C    -3.679000000     3.599000000    -0.439000000
H    -3.498000000     4.427000000     0.242000000
C    -4.655000000     1.397000000    -0.702000000
C    -4.203000000     1.329000000    -2.023000000
H    -4.302000000     0.451000000    -2.657000000
C    -3.449000000     2.410000000    -2.529000000
O    -2.684000000     2.202000000    -3.678000000
C    -1.254000000     1.850000000    -3.518000000
C    -0.826000000     0.772000000    -4.414000000
C     0.480000000     0.426000000    -4.566000000
H     1.278000000     0.988000000    -4.089000000
C    -1.757000000    -0.210000000    -4.825000000
H    -2.810000000    -0.005000000    -4.647000000
O    -0.491000000     3.070000000    -3.732000000
H    -1.083000000     1.581000000    -2.465000000
C    -3.181000000     3.552000000    -1.701000000
C    -2.173000000     4.746000000    -2.035000000
H    -2.483000000     5.657000000    -1.520000000
H    -2.245000000     4.969000000    -3.101000000
C    -0.684000000     4.530000000    -1.779000000
C    -0.079000000     5.060000000    -0.642000000
H    -0.708000000     5.645000000     0.024000000
C     0.084000000     3.744000000    -2.680000000
C     1.386000000     3.459000000    -2.380000000
H     2.046000000     2.833000000    -2.974000000
C     1.962000000     3.890000000    -1.210000000
O     3.253000000     3.621000000    -0.996000000
C     3.627000000     2.576000000    -0.073000000
C     4.752000000     1.686000000    -0.642000000
C     5.015000000     1.644000000    -2.009000000
H     4.419000000     2.285000000    -2.653000000
C     5.511000000     0.917000000     0.264000000
H     5.323000000     0.906000000     1.335000000
O     3.847000000     3.150000000     1.235000000
H     2.733000000     1.936000000    -0.033000000
C     1.260000000     4.767000000    -0.346000000
C     1.880000000     5.317000000     0.900000000
H     1.349000000     6.165000000     1.337000000
H     2.946000000     5.538000000     0.816000000
C     1.831000000     4.254000000     1.976000000
C     2.789000000     3.275000000     2.149000000
C     2.647000000     2.283000000     3.161000000
H     3.350000000     1.468000000     3.309000000
C     1.507000000     2.186000000     3.889000000
O     1.262000000     1.054000000     4.664000000
C     0.496000000     0.072000000     4.123000000
H     0.283000000     0.221000000     3.054000000
C     1.130000000    -1.325000000     4.215000000
C     0.316000000    -2.467000000     4.456000000
H    -0.750000000    -2.282000000     4.557000000
C     2.394000000    -1.573000000     3.683000000
H     2.920000000    -0.723000000     3.256000000
C     2.884000000    -2.861000000     3.759000000
O     4.147000000    -3.211000000     3.280000000
C     2.063000000    -3.903000000     4.196000000
H     2.498000000    -4.896000000     4.110000000
C     0.763000000    -3.739000000     4.494000000
O    -0.052000000    -4.849000000     4.754000000
C    -1.433000000    -4.801000000     4.763000000
C    -2.134000000    -5.006000000     3.593000000
H    -1.618000000    -5.293000000     2.680000000
C    -2.155000000    -4.703000000     5.907000000
H    -1.650000000    -4.796000000     6.865000000
C    -3.556000000    -4.744000000     5.875000000
H    -4.138000000    -4.977000000     6.763000000
C    -4.298000000    -4.762000000     4.641000000
H    -5.382000000    -4.838000000     4.662000000
C    -3.522000000    -4.960000000     3.510000000
O    -4.234000000    -5.231000000     2.404000000
C    -4.359000000    -4.353000000     1.327000000
C    -4.320000000    -4.840000000     0.014000000
H    -4.422000000    -5.879000000    -0.289000000
C    -4.193000000    -3.914000000    -1.050000000
O    -3.940000000    -4.503000000    -2.265000000
C    -4.205000000    -4.003000000    -3.523000000
C    -3.186000000    -3.379000000    -4.166000000
H    -2.226000000    -3.382000000    -3.656000000
C    -5.482000000    -4.051000000    -4.118000000
H    -6.323000000    -4.519000000    -3.613000000
C    -5.685000000    -3.634000000    -5.438000000
H    -6.699000000    -3.642000000    -5.829000000
C    -4.673000000    -2.934000000    -6.079000000
H    -4.761000000    -2.466000000    -7.056000000
C    -3.401000000    -2.851000000    -5.455000000
O    -2.340000000    -2.223000000    -6.062000000
C    -1.365000000    -1.441000000    -5.419000000
C    -0.052000000    -1.653000000    -5.723000000
H     0.216000000    -2.512000000    -6.333000000
C     0.861000000    -0.718000000    -5.318000000
O     2.210000000    -0.873000000    -5.665000000
C     3.227000000     0.014000000    -5.607000000
C     4.124000000     0.104000000    -4.551000000
H     4.038000000    -0.622000000    -3.747000000
C     3.386000000     0.794000000    -6.745000000
H     2.703000000     0.705000000    -7.586000000
C     4.391000000     1.694000000    -6.802000000
H     4.550000000     2.221000000    -7.739000000
C     5.451000000     1.661000000    -5.877000000
H     6.294000000     2.338000000    -5.997000000
C     5.306000000     0.891000000    -4.733000000
O     6.284000000     0.778000000    -3.830000000
C     6.001000000     0.738000000    -2.475000000
C     6.709000000    -0.037000000    -1.628000000
H     7.474000000    -0.742000000    -1.944000000
C     6.472000000     0.012000000    -0.256000000
O     7.300000000    -0.769000000     0.561000000
C     6.805000000    -1.212000000     1.748000000
C     7.249000000    -0.492000000     2.847000000
H     7.942000000     0.337000000     2.730000000
C     6.632000000    -0.776000000     4.057000000
H     6.934000000    -0.163000000     4.902000000
C     5.709000000    -1.795000000     4.235000000
H     5.314000000    -2.160000000     5.179000000
C     5.223000000    -2.429000000     3.086000000
C     5.833000000    -2.223000000     1.858000000
H     5.560000000    -2.771000000     0.959000000
C     1.417000000    -0.388000000     0.174000000
H     2.459000000    -0.421000000     0.481000000
C     0.400000000     0.503000000     0.523000000
H     0.505000000     1.322000000     1.230000000
C    -0.887000000     0.419000000     0.009000000
H    -1.634000000     1.075000000     0.249000000
C    -1.124000000    -0.455000000    -1.053000000
H    -2.078000000    -0.518000000    -1.570000000
C    -0.174000000    -1.323000000    -1.467000000
H    -0.322000000    -2.120000000    -2.192000000
C     1.121000000    -1.280000000    -0.854000000
C     2.233000000    -2.174000000    -1.408000000
O     2.029000000    -2.687000000    -2.492000000
O     3.275000000    -2.316000000    -0.826000000
O     5.235000000    -3.275000000    -2.610000000
H     4.764000000    -2.759000000    -1.955000000
H     4.570000000    -3.856000000    -2.980000000
O     7.642000000    -4.341000000    -0.838000000
H     7.150000000    -3.746000000    -1.403000000
H     6.973000000    -4.888000000    -0.426000000
O     6.177000000    -2.369000000    -4.980000000
H     6.131000000    -2.694000000    -4.081000000
H     5.328000000    -2.597000000    -5.360000000
O     1.335000000    -6.694000000    -4.437000000
H     2.256000000    -6.573000000    -4.207000000
H     1.112000000    -7.556000000    -4.088000000
O    -1.650000000    -6.239000000    -4.812000000
H    -1.346000000    -5.653000000    -4.118000000
H    -2.391000000    -6.705000000    -4.424000000
O     4.823000000    -7.424000000     1.692000000
H     5.520000000    -6.914000000     1.280000000
H     5.176000000    -8.313000000     1.745000000
O     4.383000000    -6.894000000    -3.938000000
H     4.697000000    -7.590000000    -3.361000000
H     4.154000000    -6.178000000    -3.346000000
O     6.950000000    -6.167000000    -4.598000000
H     7.267000000    -6.899000000    -5.126000000
H     6.126000000    -6.480000000    -4.224000000
O     3.223000000    -5.045000000    -2.327000000
H     3.116000000    -5.303000000    -1.412000000
H     2.708000000    -4.243000000    -2.412000000
O     6.642000000     3.908000000    -1.586000000
H     5.938000000     3.269000000    -1.483000000
H     7.154000000     3.832000000    -0.781000000
O    -0.022000000    -4.792000000    -3.112000000
H     0.409000000    -5.474000000    -3.627000000
H     0.555000000    -4.032000000    -3.190000000
O     1.235000000    -5.402000000    -7.108000000
H     1.843000000    -6.013000000    -7.524000000
H     1.254000000    -5.638000000    -6.181000000
O     5.674000000    -1.962000000    -8.044000000
H     5.064000000    -2.255000000    -7.369000000
H     6.381000000    -1.537000000    -7.558000000
O     4.054000000    -3.492000000    -6.393000000
H     4.028000000    -4.388000000    -6.730000000
H     3.355000000    -3.462000000    -5.740000000
O     2.383000000    -7.178000000     2.693000000
H     1.673000000    -7.661000000     2.271000000
H     3.159000000    -7.394000000     2.177000000
O     8.383000000    -4.212000000    -3.593000000
H     7.839000000    -4.775000000    -4.143000000
H     8.150000000    -4.454000000    -2.697000000
O     1.171000000    -5.408000000     0.024000000
H     1.916000000    -4.925000000     0.383000000
H     0.541000000    -4.730000000    -0.220000000
O     3.653000000    -4.548000000     0.605000000
H     4.028000000    -4.454000000     1.480000000
H     3.649000000    -3.660000000     0.249000000
O     0.816000000    -8.091000000    -0.938000000
H     0.729000000    -7.187000000    -0.637000000
H    -0.077000000    -8.434000000    -0.929000000
