215
-1459.24790
C    -4.871000000    -1.982000000    -0.885000000
H    -5.438000000    -1.337000000    -1.551000000
C    -4.266000000    -1.404000000     0.213000000
C    -3.377000000    -2.169000000     1.016000000
H    -2.839000000    -1.787000000     1.881000000
C    -4.266000000     0.115000000     0.440000000
O    -5.047000000     0.895000000    -0.468000000
H    -3.216000000     0.410000000     0.296000000
O    -4.572000000     0.500000000     1.789000000
C    -3.724000000     1.293000000     2.468000000
C    -2.781000000     0.700000000     3.318000000
H    -2.842000000    -0.365000000     3.525000000
C    -1.654000000     1.422000000     3.824000000
O    -0.816000000     0.750000000     4.668000000
C    -1.594000000     2.794000000     3.559000000
C    -0.482000000     3.649000000     4.022000000
H    -0.720000000     4.714000000     4.011000000
C     0.885000000     3.557000000     3.435000000
C     1.176000000     4.392000000     2.252000000
H     0.471000000     5.165000000     1.958000000
H    -0.427000000     3.441000000     5.093000000
C    -2.580000000     3.371000000     2.714000000
H    -2.553000000     4.450000000     2.581000000
C    -3.624000000     2.644000000     2.123000000
C    -4.532000000     3.304000000     1.113000000
H    -4.594000000     4.370000000     1.344000000
H    -5.497000000     2.810000000     1.244000000
C    -4.061000000     3.077000000    -0.300000000
C    -3.079000000     3.932000000    -0.837000000
H    -2.826000000     4.776000000    -0.200000000
C    -4.292000000     1.911000000    -1.047000000
C    -3.736000000     1.661000000    -2.261000000
H    -3.904000000     0.696000000    -2.734000000
C    -2.914000000     2.579000000    -2.847000000
O    -2.259000000     2.277000000    -4.007000000
C    -1.023000000     1.597000000    -3.778000000
C    -0.821000000     0.495000000    -4.765000000
C     0.360000000     0.239000000    -5.313000000
H     1.248000000     0.855000000    -5.199000000
C    -1.912000000    -0.295000000    -5.121000000
H    -2.873000000    -0.081000000    -4.661000000
O     0.016000000     2.610000000    -3.990000000
H    -0.874000000     1.270000000    -2.738000000
C    -2.493000000     3.717000000    -2.064000000
C    -1.427000000     4.722000000    -2.624000000
H    -1.473000000     5.697000000    -2.135000000
H    -1.647000000     4.851000000    -3.686000000
C    -0.050000000     4.257000000    -2.314000000
C     0.603000000     4.865000000    -1.228000000
H     0.097000000     5.655000000    -0.678000000
C     0.578000000     3.191000000    -2.925000000
C     1.875000000     2.820000000    -2.617000000
H     2.360000000     2.000000000    -3.140000000
C     2.558000000     3.451000000    -1.562000000
O     3.776000000     2.922000000    -1.135000000
C     3.663000000     2.023000000    -0.064000000
C     4.330000000     0.601000000    -0.211000000
C     3.954000000    -0.150000000    -1.315000000
H     3.359000000     0.297000000    -2.106000000
C     5.099000000    -0.026000000     0.784000000
H     5.294000000     0.548000000     1.687000000
O     4.182000000     2.700000000     1.121000000
H     2.585000000     1.813000000     0.004000000
C     1.892000000     4.423000000    -0.820000000
C     2.597000000     5.063000000     0.414000000
H     2.143000000     6.049000000     0.532000000
H     3.660000000     5.164000000     0.185000000
C     2.374000000     4.165000000     1.619000000
C     3.235000000     3.129000000     1.975000000
C     2.878000000     2.322000000     3.055000000
H     3.631000000     1.583000000     3.318000000
C     1.704000000     2.502000000     3.782000000
O     1.354000000     1.476000000     4.611000000
C     0.472000000     0.459000000     4.139000000
H     0.356000000     0.516000000     3.047000000
C     0.829000000    -0.931000000     4.656000000
C    -0.182000000    -1.881000000     4.890000000
H    -1.233000000    -1.612000000     4.823000000
C     2.148000000    -1.288000000     4.698000000
H     2.932000000    -0.606000000     4.377000000
C     2.540000000    -2.565000000     5.142000000
O     3.876000000    -2.960000000     5.145000000
C     1.526000000    -3.440000000     5.522000000
H     1.714000000    -4.428000000     5.936000000
C     0.190000000    -3.095000000     5.502000000
O    -0.747000000    -3.991000000     5.895000000
C    -1.731000000    -4.381000000     4.989000000
C    -1.494000000    -4.348000000     3.568000000
H    -0.538000000    -4.001000000     3.186000000
C    -2.978000000    -4.744000000     5.435000000
H    -3.102000000    -4.734000000     6.514000000
C    -4.024000000    -5.047000000     4.575000000
H    -5.053000000    -5.158000000     4.905000000
C    -3.808000000    -4.903000000     3.161000000
H    -4.589000000    -5.157000000     2.450000000
C    -2.524000000    -4.542000000     2.731000000
O    -2.356000000    -4.343000000     1.449000000
C    -3.205000000    -3.555000000     0.758000000
C    -3.890000000    -4.147000000    -0.332000000
H    -3.816000000    -5.221000000    -0.478000000
C    -4.597000000    -3.327000000    -1.182000000
O    -4.947000000    -3.921000000    -2.374000000
C    -5.072000000    -3.322000000    -3.638000000
C    -3.858000000    -3.156000000    -4.379000000
H    -2.874000000    -3.428000000    -4.006000000
C    -6.272000000    -2.847000000    -4.196000000
H    -7.161000000    -2.915000000    -3.574000000
C    -6.327000000    -2.246000000    -5.431000000
H    -7.286000000    -1.934000000    -5.836000000
C    -5.121000000    -2.081000000    -6.188000000
H    -5.143000000    -1.754000000    -7.225000000
C    -3.935000000    -2.466000000    -5.640000000
O    -2.800000000    -2.254000000    -6.326000000
C    -1.771000000    -1.374000000    -6.021000000
C    -0.540000000    -1.694000000    -6.498000000
H    -0.360000000    -2.547000000    -7.147000000
C     0.522000000    -0.820000000    -6.213000000
O     1.801000000    -1.119000000    -6.748000000
C     2.936000000    -0.835000000    -5.973000000
C     3.258000000    -1.631000000    -4.816000000
H     2.579000000    -2.430000000    -4.530000000
C     3.748000000     0.245000000    -6.298000000
H     3.532000000     0.821000000    -7.193000000
C     4.790000000     0.649000000    -5.446000000
H     5.438000000     1.507000000    -5.610000000
C     5.109000000    -0.155000000    -4.347000000
H     5.954000000     0.246000000    -3.794000000
C     4.319000000    -1.231000000    -3.951000000
O     4.597000000    -1.928000000    -2.837000000
C     4.588000000    -1.410000000    -1.558000000
C     5.530000000    -1.909000000    -0.719000000
H     6.163000000    -2.752000000    -0.982000000
C     5.731000000    -1.237000000     0.498000000
O     6.590000000    -1.628000000     1.475000000
C     6.338000000    -1.681000000     2.816000000
C     7.404000000    -1.435000000     3.679000000
H     8.348000000    -1.104000000     3.256000000
C     7.255000000    -1.649000000     5.072000000
H     8.076000000    -1.403000000     5.740000000
C     5.994000000    -2.028000000     5.571000000
H     5.832000000    -2.184000000     6.635000000
C     4.952000000    -2.268000000     4.699000000
C     5.081000000    -2.121000000     3.277000000
H     4.257000000    -2.324000000     2.598000000
C     1.233000000    -0.905000000     0.644000000
H     2.067000000    -0.992000000     1.336000000
C     0.480000000     0.261000000     0.516000000
H     0.763000000     1.135000000     1.096000000
C    -0.518000000     0.392000000    -0.432000000
H    -1.116000000     1.358000000    -0.486000000
C    -0.969000000    -0.665000000    -1.151000000
H    -1.818000000    -0.663000000    -1.830000000
C    -0.326000000    -1.855000000    -0.962000000
H    -0.588000000    -2.735000000    -1.545000000
C     0.787000000    -2.001000000    -0.115000000
C     1.398000000    -3.352000000     0.183000000
O     0.770000000    -4.319000000    -0.249000000
O     2.412000000    -3.508000000     0.862000000
O     4.844000000    -4.459000000     1.066000000
H     4.687000000    -5.276000000     0.593000000
H     4.031000000    -3.964000000     0.967000000
O     3.689000000    -7.326000000     2.271000000
H     3.556000000    -6.980000000     1.389000000
H     3.057000000    -6.853000000     2.812000000
O     4.052000000    -5.025000000    -2.767000000
H     3.506000000    -4.257000000    -2.935000000
H     3.725000000    -5.689000000    -3.374000000
O     7.490000000    -4.664000000     1.401000000
H     6.542000000    -4.726000000     1.284000000
H     7.635000000    -3.774000000     1.723000000
O     1.765000000    -5.412000000    -5.075000000
H     1.238000000    -5.039000000    -4.369000000
H     1.521000000    -4.904000000    -5.849000000
O     5.788000000    -8.928000000     1.934000000
H     6.510000000    -8.343000000     1.705000000
H     5.009000000    -8.372000000     1.899000000
O     0.086000000    -7.894000000     3.590000000
H     0.200000000    -6.954000000     3.446000000
H    -0.853000000    -8.001000000     3.744000000
O     0.634000000    -8.050000000    -2.921000000
H     0.776000000    -7.107000000    -2.839000000
H     1.470000000    -8.392000000    -3.238000000
O    -3.032000000    -7.696000000     1.427000000
H    -2.880000000    -8.521000000     0.966000000
H    -3.864000000    -7.376000000     1.078000000
O     0.744000000   -10.424000000    -1.950000000
H     0.712000000   -10.312000000    -1.000000000
H     0.604000000    -9.545000000    -2.300000000
O     3.114000000    -6.100000000    -0.396000000
H     3.425000000    -6.127000000    -1.301000000
H     2.441000000    -5.420000000    -0.394000000
O     0.173000000    -5.192000000    -2.905000000
H     0.297000000    -4.935000000    -1.991000000
H    -0.706000000    -5.571000000    -2.931000000
O     6.474000000    -6.130000000    -2.924000000
H     5.730000000    -5.759000000    -2.449000000
H     6.762000000    -5.426000000    -3.505000000
O     3.769000000    -6.356000000     5.215000000
H     3.566000000    -5.458000000     4.951000000
H     2.915000000    -6.765000000     5.348000000
O     6.722000000    -3.626000000    -4.535000000
H     6.553000000    -3.124000000    -5.332000000
H     6.333000000    -3.102000000    -3.835000000
O    -2.048000000    -6.684000000    -2.454000000
H    -1.334000000    -7.182000000    -2.056000000
H    -2.742000000    -6.690000000    -1.795000000
O    -0.495000000    -6.404000000     0.681000000
H    -0.131000000    -5.567000000     0.393000000
H    -1.350000000    -6.180000000     1.049000000
O     1.544000000    -5.397000000     2.719000000
H     1.146000000    -5.546000000     1.861000000
H     2.072000000    -4.607000000     2.604000000
O     0.866000000    -8.878000000     0.443000000
H     0.066000000    -8.373000000     0.294000000
H     1.458000000    -8.266000000     0.879000000
