215
-1469.78787
C    -4.856000000    -1.965000000    -1.454000000
H    -4.655000000    -1.159000000    -2.154000000
C    -4.771000000    -1.600000000    -0.142000000
C    -4.855000000    -2.617000000     0.852000000
H    -4.608000000    -2.288000000     1.858000000
C    -4.420000000    -0.145000000     0.316000000
O    -5.083000000     0.853000000    -0.595000000
H    -3.349000000     0.045000000     0.155000000
O    -4.689000000     0.195000000     1.696000000
C    -3.817000000     0.993000000     2.395000000
C    -2.894000000     0.291000000     3.163000000
H    -2.985000000    -0.788000000     3.264000000
C    -1.849000000     0.901000000     3.867000000
O    -0.949000000     0.058000000     4.467000000
C    -1.815000000     2.271000000     3.792000000
C    -0.745000000     2.993000000     4.612000000
H    -0.955000000     4.054000000     4.766000000
C     0.571000000     2.953000000     3.848000000
C     0.739000000     3.930000000     2.870000000
H     0.005000000     4.674000000     2.575000000
H    -0.647000000     2.531000000     5.596000000
C    -2.691000000     3.006000000     2.982000000
H    -2.737000000     4.089000000     3.065000000
C    -3.694000000     2.407000000     2.197000000
C    -4.596000000     3.125000000     1.212000000
H    -4.608000000     4.174000000     1.514000000
H    -5.649000000     2.867000000     1.345000000
C    -4.010000000     2.981000000    -0.161000000
C    -3.013000000     3.936000000    -0.609000000
H    -2.678000000     4.702000000     0.086000000
C    -4.361000000     1.945000000    -1.011000000
C    -3.713000000     1.781000000    -2.235000000
H    -3.981000000     0.970000000    -2.908000000
C    -2.698000000     2.685000000    -2.615000000
O    -1.982000000     2.495000000    -3.810000000
C    -0.698000000     1.900000000    -3.803000000
C    -0.534000000     0.874000000    -4.947000000
C     0.764000000     0.642000000    -5.407000000
H     1.503000000     1.370000000    -5.081000000
C    -1.569000000    -0.042000000    -5.258000000
H    -2.542000000     0.059000000    -4.786000000
O     0.294000000     2.988000000    -3.865000000
H    -0.605000000     1.353000000    -2.853000000
C    -2.335000000     3.763000000    -1.834000000
C    -1.429000000     4.822000000    -2.338000000
H    -1.678000000     5.803000000    -1.928000000
H    -1.569000000     4.953000000    -3.413000000
C    -0.033000000     4.443000000    -1.925000000
C     0.409000000     4.897000000    -0.703000000
H    -0.320000000     5.347000000    -0.034000000
C     0.685000000     3.496000000    -2.641000000
C     1.984000000     3.089000000    -2.245000000
H     2.599000000     2.435000000    -2.857000000
C     2.488000000     3.762000000    -1.095000000
O     3.766000000     3.376000000    -0.727000000
C     3.858000000     2.461000000     0.367000000
C     4.642000000     1.189000000     0.187000000
C     4.533000000     0.506000000    -1.071000000
H     3.927000000     0.914000000    -1.876000000
C     5.299000000     0.570000000     1.289000000
H     5.429000000     1.001000000     2.279000000
O     4.036000000     3.073000000     1.588000000
H     2.859000000     2.001000000     0.368000000
C     1.706000000     4.635000000    -0.267000000
C     2.193000000     5.146000000     1.074000000
H     1.632000000     6.033000000     1.375000000
H     3.258000000     5.384000000     1.062000000
C     1.952000000     4.051000000     2.147000000
C     2.919000000     3.130000000     2.387000000
C     2.754000000     2.155000000     3.367000000
H     3.485000000     1.356000000     3.453000000
C     1.573000000     2.041000000     4.036000000
O     1.264000000     0.845000000     4.584000000
C     0.351000000    -0.001000000     3.847000000
H     0.351000000     0.366000000     2.810000000
C     0.816000000    -1.439000000     3.916000000
C     0.061000000    -2.413000000     3.201000000
H    -0.769000000    -2.064000000     2.591000000
C     2.006000000    -1.811000000     4.515000000
H     2.600000000    -1.056000000     5.022000000
C     2.366000000    -3.170000000     4.573000000
O     3.580000000    -3.612000000     5.111000000
C     1.496000000    -4.155000000     4.055000000
H     1.728000000    -5.215000000     4.110000000
C     0.356000000    -3.754000000     3.420000000
O    -0.544000000    -4.698000000     2.943000000
C    -1.819000000    -4.688000000     3.254000000
C    -2.735000000    -4.894000000     2.193000000
H    -2.381000000    -4.886000000     1.165000000
C    -2.248000000    -4.519000000     4.551000000
H    -1.491000000    -4.319000000     5.305000000
C    -3.640000000    -4.476000000     4.809000000
H    -4.079000000    -4.358000000     5.797000000
C    -4.577000000    -4.652000000     3.776000000
H    -5.630000000    -4.505000000     4.005000000
C    -4.141000000    -4.957000000     2.435000000
O    -5.018000000    -4.945000000     1.470000000
C    -5.058000000    -3.933000000     0.545000000
C    -5.293000000    -4.222000000    -0.818000000
H    -5.416000000    -5.281000000    -1.029000000
C    -5.144000000    -3.271000000    -1.793000000
O    -5.241000000    -3.726000000    -3.156000000
C    -5.001000000    -2.849000000    -4.206000000
C    -3.691000000    -2.827000000    -4.690000000
H    -3.006000000    -3.524000000    -4.213000000
C    -5.926000000    -1.911000000    -4.699000000
H    -6.923000000    -1.965000000    -4.270000000
C    -5.641000000    -1.133000000    -5.773000000
H    -6.332000000    -0.428000000    -6.230000000
C    -4.390000000    -1.243000000    -6.399000000
H    -4.215000000    -0.700000000    -7.324000000
C    -3.428000000    -2.068000000    -5.800000000
O    -2.145000000    -2.089000000    -6.322000000
C    -1.215000000    -1.150000000    -6.015000000
C     0.086000000    -1.359000000    -6.474000000
H     0.375000000    -2.272000000    -6.987000000
C     1.134000000    -0.542000000    -6.132000000
O     2.429000000    -0.965000000    -6.410000000
C     3.488000000    -0.457000000    -5.642000000
C     3.696000000    -1.067000000    -4.382000000
H     3.014000000    -1.856000000    -4.076000000
C     4.401000000     0.569000000    -6.063000000
H     4.299000000     1.048000000    -7.033000000
C     5.533000000     0.856000000    -5.307000000
H     6.199000000     1.664000000    -5.598000000
C     5.739000000     0.232000000    -4.110000000
H     6.565000000     0.449000000    -3.438000000
C     4.861000000    -0.746000000    -3.678000000
O     5.104000000    -1.315000000    -2.467000000
C     5.238000000    -0.658000000    -1.294000000
C     5.897000000    -1.274000000    -0.202000000
H     6.512000000    -2.134000000    -0.455000000
C     5.955000000    -0.657000000     1.052000000
O     6.711000000    -1.251000000     2.019000000
C     6.280000000    -1.725000000     3.280000000
C     7.291000000    -1.904000000     4.237000000
H     8.305000000    -1.630000000     3.955000000
C     7.127000000    -2.590000000     5.446000000
H     8.000000000    -2.770000000     6.067000000
C     5.859000000    -3.108000000     5.711000000
H     5.753000000    -3.711000000     6.609000000
C     4.805000000    -2.947000000     4.808000000
C     5.024000000    -2.277000000     3.592000000
H     4.213000000    -2.174000000     2.876000000
C     1.377000000    -0.340000000     0.477000000
H     2.275000000    -0.313000000     1.088000000
C     0.573000000     0.780000000     0.361000000
H     0.761000000     1.706000000     0.899000000
C    -0.513000000     0.717000000    -0.494000000
H    -1.218000000     1.510000000    -0.566000000
C    -0.794000000    -0.415000000    -1.198000000
H    -1.593000000    -0.585000000    -1.914000000
C     0.044000000    -1.545000000    -1.113000000
H    -0.231000000    -2.340000000    -1.801000000
C     1.146000000    -1.529000000    -0.277000000
C     2.043000000    -2.718000000    -0.245000000
O     1.893000000    -3.568000000    -1.134000000
O     2.898000000    -2.818000000     0.586000000
O     3.946000000    -3.979000000    -2.528000000
H     3.120000000    -3.836000000    -2.066000000
H     4.318000000    -3.103000000    -2.629000000
O     7.109000000    -4.572000000     1.118000000
H     7.344000000    -4.967000000     1.959000000
H     6.153000000    -4.564000000     1.116000000
O     5.774000000    -7.640000000    -1.528000000
H     5.866000000    -8.559000000    -1.275000000
H     5.823000000    -7.158000000    -0.702000000
O     5.986000000    -7.799000000     1.253000000
H     6.903000000    -8.068000000     1.206000000
H     6.010000000    -6.938000000     1.669000000
O     1.058000000    -8.414000000    -2.593000000
H     1.582000000    -9.150000000    -2.911000000
H     1.692000000    -7.706000000    -2.470000000
O     0.014000000    -6.464000000    -4.899000000
H     0.417000000    -5.816000000    -4.320000000
H    -0.679000000    -5.983000000    -5.352000000
O    -1.579000000    -7.802000000    -3.120000000
H    -0.809000000    -7.819000000    -2.551000000
H    -1.250000000    -7.477000000    -3.958000000
O     5.835000000    -6.240000000    -4.156000000
H     5.840000000    -6.933000000    -3.496000000
H     5.278000000    -5.557000000    -3.782000000
O    -2.295000000    -7.911000000     1.123000000
H    -2.819000000    -8.616000000     0.744000000
H    -1.457000000    -7.962000000     0.662000000
O     3.103000000    -6.712000000    -2.303000000
H     3.997000000    -7.049000000    -2.242000000
H     3.210000000    -5.766000000    -2.400000000
O     1.248000000    -4.035000000    -3.838000000
H     1.427000000    -4.070000000    -2.898000000
H     0.468000000    -3.485000000    -3.912000000
O    -0.201000000    -7.243000000     4.656000000
H     0.308000000    -6.640000000     4.114000000
H    -0.104000000    -6.905000000     5.546000000
O     3.436000000    -4.814000000    -5.600000000
H     3.429000000    -5.771000000    -5.580000000
H     2.732000000    -4.557000000    -5.005000000
O     2.931000000    -6.881000000     2.655000000
H     2.463000000    -6.745000000     1.831000000
H     2.954000000    -7.832000000     2.762000000
O     6.625000000    -4.206000000    -1.775000000
H     7.034000000    -4.367000000    -0.925000000
H     5.685000000    -4.265000000    -1.603000000
O     1.638000000    -5.722000000     0.613000000
H     1.715000000    -5.080000000     1.320000000
H     1.724000000    -5.206000000    -0.189000000
O     4.554000000    -4.991000000     0.975000000
H     4.008000000    -5.726000000     1.254000000
H     3.947000000    -4.254000000     0.908000000
O     7.873000000    -1.841000000    -3.543000000
H     8.186000000    -1.498000000    -2.705000000
H     7.256000000    -2.532000000    -3.303000000
O     0.000000000    -8.203000000     0.008000000
H    -0.074000000    -7.268000000     0.198000000
H     0.563000000    -8.246000000    -0.766000000
