215
-1459.72333
C    -4.742000000    -1.696000000    -1.320000000
H    -4.319000000    -1.142000000    -2.154000000
C    -4.677000000    -1.120000000    -0.071000000
C    -4.987000000    -1.858000000     1.067000000
H    -4.998000000    -1.415000000     2.060000000
C    -4.274000000     0.323000000     0.088000000
O    -4.880000000     1.122000000    -0.955000000
H    -3.177000000     0.322000000     0.003000000
O    -4.702000000     0.757000000     1.385000000
C    -3.808000000     1.389000000     2.156000000
C    -2.994000000     0.692000000     3.062000000
H    -3.030000000    -0.387000000     3.191000000
C    -2.064000000     1.392000000     3.811000000
O    -1.220000000     0.637000000     4.657000000
C    -1.850000000     2.718000000     3.624000000
C    -0.674000000     3.412000000     4.299000000
H    -0.800000000     4.480000000     4.492000000
C     0.689000000     3.302000000     3.532000000
C     1.070000000     4.190000000     2.489000000
H     0.322000000     4.854000000     2.065000000
H    -0.541000000     3.011000000     5.306000000
C    -2.547000000     3.463000000     2.657000000
H    -2.227000000     4.468000000     2.395000000
C    -3.521000000     2.776000000     1.856000000
C    -4.300000000     3.494000000     0.813000000
H    -4.072000000     4.558000000     0.898000000
H    -5.358000000     3.228000000     0.783000000
C    -3.694000000     3.205000000    -0.628000000
C    -2.691000000     4.110000000    -1.047000000
H    -2.383000000     4.949000000    -0.429000000
C    -4.087000000     2.123000000    -1.462000000
C    -3.505000000     1.973000000    -2.752000000
H    -3.821000000     1.161000000    -3.402000000
C    -2.513000000     2.780000000    -3.075000000
O    -1.758000000     2.362000000    -4.173000000
C    -0.502000000     1.709000000    -3.806000000
C    -0.293000000     0.366000000    -4.528000000
C     0.992000000    -0.173000000    -4.388000000
H     1.781000000     0.361000000    -3.866000000
C    -1.294000000    -0.376000000    -5.060000000
H    -2.314000000    -0.002000000    -5.110000000
O     0.510000000     2.664000000    -4.106000000
H    -0.398000000     1.440000000    -2.745000000
C    -2.117000000     3.863000000    -2.305000000
C    -1.012000000     4.749000000    -2.743000000
H    -1.074000000     5.769000000    -2.359000000
H    -1.017000000     4.858000000    -3.829000000
C     0.334000000     4.276000000    -2.262000000
C     0.842000000     4.795000000    -1.114000000
H     0.254000000     5.533000000    -0.575000000
C     1.075000000     3.302000000    -2.993000000
C     2.280000000     2.829000000    -2.473000000
H     2.839000000     2.083000000    -3.032000000
C     2.818000000     3.390000000    -1.334000000
O     4.060000000     3.014000000    -0.865000000
C     4.063000000     2.048000000     0.269000000
C     4.998000000     0.943000000     0.017000000
C     5.293000000     0.542000000    -1.327000000
H     4.920000000     1.055000000    -2.210000000
C     5.538000000     0.262000000     1.121000000
H     5.320000000     0.492000000     2.161000000
O     4.305000000     2.772000000     1.522000000
H     3.128000000     1.482000000     0.392000000
C     2.116000000     4.382000000    -0.620000000
C     2.632000000     4.999000000     0.687000000
H     2.382000000     6.051000000     0.843000000
H     3.704000000     5.139000000     0.536000000
C     2.319000000     4.090000000     1.838000000
C     3.222000000     3.103000000     2.282000000
C     2.783000000     2.252000000     3.244000000
H     3.282000000     1.292000000     3.353000000
C     1.551000000     2.247000000     3.838000000
O     1.145000000     1.209000000     4.582000000
C     0.137000000     0.261000000     4.064000000
H     0.075000000     0.377000000     2.972000000
C     0.450000000    -1.266000000     4.305000000
C    -0.587000000    -2.147000000     4.213000000
H    -1.606000000    -1.775000000     4.138000000
C     1.764000000    -1.736000000     4.228000000
H     2.610000000    -1.073000000     4.062000000
C     1.948000000    -3.160000000     4.040000000
O     3.169000000    -3.706000000     3.699000000
C     0.866000000    -4.028000000     4.147000000
H     1.087000000    -5.089000000     4.223000000
C    -0.366000000    -3.510000000     4.292000000
O    -1.410000000    -4.471000000     4.437000000
C    -2.779000000    -4.258000000     4.357000000
C    -3.489000000    -4.078000000     3.185000000
H    -3.002000000    -4.164000000     2.217000000
C    -3.461000000    -4.303000000     5.533000000
H    -2.850000000    -4.443000000     6.421000000
C    -4.787000000    -4.046000000     5.651000000
H    -5.285000000    -3.945000000     6.613000000
C    -5.562000000    -3.928000000     4.481000000
H    -6.641000000    -3.810000000     4.411000000
C    -4.873000000    -3.881000000     3.212000000
O    -5.723000000    -3.826000000     2.135000000
C    -5.337000000    -3.227000000     0.950000000
C    -5.380000000    -3.830000000    -0.266000000
H    -5.573000000    -4.900000000    -0.270000000
C    -5.059000000    -3.079000000    -1.438000000
O    -4.841000000    -3.679000000    -2.587000000
C    -4.758000000    -3.042000000    -3.811000000
C    -3.501000000    -2.869000000    -4.396000000
H    -2.625000000    -3.237000000    -3.868000000
C    -5.918000000    -2.722000000    -4.516000000
H    -6.913000000    -2.748000000    -4.079000000
C    -5.768000000    -2.116000000    -5.776000000
H    -6.645000000    -1.717000000    -6.279000000
C    -4.546000000    -1.881000000    -6.381000000
H    -4.562000000    -1.439000000    -7.374000000
C    -3.399000000    -2.355000000    -5.726000000
O    -2.106000000    -2.221000000    -6.263000000
C    -1.078000000    -1.582000000    -5.611000000
C     0.193000000    -2.173000000    -5.459000000
H     0.392000000    -3.165000000    -5.856000000
C     1.173000000    -1.526000000    -4.788000000
O     2.407000000    -2.164000000    -4.607000000
C     3.696000000    -1.617000000    -4.875000000
C     4.594000000    -1.656000000    -3.817000000
H     4.307000000    -2.163000000    -2.899000000
C     4.006000000    -0.856000000    -6.018000000
H     3.201000000    -0.699000000    -6.731000000
C     5.198000000    -0.188000000    -6.067000000
H     5.360000000     0.543000000    -6.856000000
C     6.085000000    -0.242000000    -5.031000000
H     7.040000000     0.276000000    -5.048000000
C     5.796000000    -1.002000000    -3.919000000
O     6.631000000    -0.926000000    -2.790000000
C     6.219000000    -0.520000000    -1.554000000
C     6.837000000    -1.089000000    -0.461000000
H     7.585000000    -1.862000000    -0.612000000
C     6.442000000    -0.770000000     0.833000000
O     6.919000000    -1.403000000     1.915000000
C     6.232000000    -1.865000000     2.981000000
C     6.665000000    -1.534000000     4.279000000
H     7.594000000    -0.973000000     4.340000000
C     5.901000000    -1.944000000     5.352000000
H     6.255000000    -1.705000000     6.352000000
C     4.722000000    -2.676000000     5.164000000
H     4.205000000    -3.071000000     6.035000000
C     4.324000000    -3.065000000     3.890000000
C     5.110000000    -2.722000000     2.804000000
H     4.898000000    -3.053000000     1.791000000
C     1.427000000    -2.287000000     0.921000000
H     2.232000000    -2.823000000     1.417000000
C     1.495000000    -0.923000000     0.637000000
H     2.401000000    -0.403000000     0.941000000
C     0.421000000    -0.313000000     0.013000000
H     0.439000000     0.783000000    -0.307000000
C    -0.708000000    -1.021000000    -0.361000000
H    -1.576000000    -0.556000000    -0.821000000
C    -0.740000000    -2.391000000    -0.179000000
H    -1.577000000    -2.936000000    -0.609000000
C     0.342000000    -3.083000000     0.444000000
C     0.318000000    -4.566000000     0.484000000
O    -0.521000000    -5.195000000    -0.119000000
O     1.233000000    -5.150000000     1.062000000
O     3.554000000    -3.888000000    -0.871000000
H     4.017000000    -4.658000000    -0.540000000
H     3.239000000    -3.442000000    -0.085000000
O     6.403000000    -5.148000000     0.944000000
H     6.542000000    -4.691000000     0.115000000
H     5.484000000    -5.415000000     0.919000000
O     2.540000000    -9.301000000     1.181000000
H     2.726000000   -10.215000000     1.397000000
H     3.236000000    -9.052000000     0.573000000
O    -2.293000000    -9.488000000     1.208000000
H    -2.601000000    -9.895000000     2.017000000
H    -1.659000000    -8.831000000     1.496000000
O    -1.094000000    -4.858000000    -3.905000000
H    -1.091000000    -4.972000000    -4.856000000
H    -0.224000000    -4.516000000    -3.702000000
O     0.554000000    -7.793000000    -3.930000000
H     0.565000000    -6.857000000    -3.730000000
H     1.339000000    -8.138000000    -3.505000000
O    -2.825000000    -5.688000000    -1.408000000
H    -1.958000000    -5.461000000    -1.072000000
H    -2.763000000    -5.535000000    -2.351000000
O    -0.242000000   -10.289000000    -1.792000000
H    -0.487000000    -9.510000000    -1.292000000
H    -0.938000000   -10.920000000    -1.607000000
O     2.940000000    -5.014000000    -4.847000000
H     2.721000000    -4.092000000    -4.978000000
H     2.604000000    -5.218000000    -3.974000000
O     1.046000000    -7.488000000    -0.768000000
H     1.427000000    -7.953000000    -0.023000000
H     0.727000000    -6.664000000    -0.398000000
O     1.317000000    -4.867000000    -2.500000000
H     2.056000000    -4.510000000    -2.007000000
H     0.731000000    -5.220000000    -1.831000000
O     3.054000000    -7.684000000    -2.619000000
H     3.267000000    -8.614000000    -2.545000000
H     2.336000000    -7.553000000    -1.999000000
O     3.907000000    -6.980000000     5.202000000
H     3.560000000    -6.761000000     4.337000000
H     4.855000000    -6.892000000     5.109000000
O     4.861000000    -8.729000000    -0.113000000
H     4.872000000    -9.102000000    -0.994000000
H     4.915000000    -7.784000000    -0.252000000
O    -4.099000000    -7.102000000     0.455000000
H    -3.912000000    -6.407000000    -0.176000000
H    -4.320000000    -7.862000000    -0.084000000
O     2.222000000    -6.944000000     3.156000000
H     1.875000000    -6.297000000     2.542000000
H     2.196000000    -7.770000000     2.674000000
O     3.873000000    -6.135000000     0.801000000
H     3.815000000    -7.056000000     1.054000000
H     2.963000000    -5.842000000     0.752000000
O    -1.252000000    -7.550000000     4.223000000
H    -0.634000000    -6.862000000     4.468000000
H    -1.551000000    -7.303000000     3.348000000
O    -1.698000000    -6.775000000     1.793000000
H    -1.258000000    -6.094000000     1.284000000
H    -2.513000000    -6.939000000     1.320000000
