215
-1464.74640
C    -4.229000000    -2.378000000    -0.994000000
H    -4.057000000    -1.673000000    -1.804000000
C    -4.181000000    -1.799000000     0.282000000
C    -4.110000000    -2.697000000     1.360000000
H    -4.017000000    -2.331000000     2.379000000
C    -4.055000000    -0.255000000     0.435000000
O    -4.923000000     0.546000000    -0.401000000
H    -3.009000000    -0.079000000     0.144000000
O    -4.247000000     0.192000000     1.839000000
C    -3.567000000     1.266000000     2.410000000
C    -2.739000000     0.940000000     3.460000000
H    -2.804000000    -0.076000000     3.841000000
C    -1.806000000     1.787000000     3.987000000
O    -0.982000000     1.195000000     4.875000000
C    -1.781000000     3.152000000     3.471000000
C    -0.683000000     4.047000000     3.917000000
H    -0.995000000     5.083000000     3.769000000
C     0.619000000     3.773000000     3.124000000
C     0.881000000     4.539000000     2.002000000
H     0.174000000     5.249000000     1.582000000
H    -0.554000000     4.022000000     5.001000000
C    -2.700000000     3.549000000     2.499000000
H    -2.626000000     4.584000000     2.177000000
C    -3.607000000     2.577000000     1.913000000
C    -4.568000000     3.073000000     0.855000000
H    -4.752000000     4.136000000     1.024000000
H    -5.546000000     2.588000000     0.870000000
C    -4.028000000     2.765000000    -0.492000000
C    -3.165000000     3.629000000    -1.165000000
H    -2.857000000     4.576000000    -0.730000000
C    -4.343000000     1.544000000    -1.115000000
C    -3.917000000     1.262000000    -2.429000000
H    -4.189000000     0.301000000    -2.858000000
C    -3.053000000     2.155000000    -3.015000000
O    -2.462000000     1.777000000    -4.203000000
C    -1.099000000     1.255000000    -3.960000000
C    -0.879000000    -0.095000000    -4.687000000
C     0.345000000    -0.754000000    -4.610000000
H     1.142000000    -0.364000000    -3.983000000
C    -1.871000000    -0.712000000    -5.435000000
H    -2.850000000    -0.255000000    -5.552000000
O    -0.140000000     2.149000000    -4.479000000
H    -0.934000000     1.058000000    -2.891000000
C    -2.655000000     3.336000000    -2.437000000
C    -1.697000000     4.225000000    -3.099000000
H    -1.958000000     5.246000000    -2.812000000
H    -1.784000000     4.108000000    -4.181000000
C    -0.223000000     3.946000000    -2.810000000
C     0.317000000     4.523000000    -1.678000000
H    -0.189000000     5.297000000    -1.107000000
C     0.496000000     2.955000000    -3.506000000
C     1.810000000     2.629000000    -3.097000000
H     2.323000000     1.857000000    -3.664000000
C     2.372000000     3.233000000    -1.978000000
O     3.575000000     2.793000000    -1.493000000
C     3.543000000     2.051000000    -0.272000000
C     4.417000000     0.811000000    -0.414000000
C     4.804000000     0.261000000    -1.653000000
H     4.233000000     0.548000000    -2.531000000
C     4.913000000     0.215000000     0.796000000
H     4.623000000     0.506000000     1.803000000
O     4.041000000     2.861000000     0.821000000
H     2.525000000     1.691000000    -0.062000000
C     1.623000000     4.241000000    -1.276000000
C     2.204000000     5.008000000    -0.106000000
H     1.688000000     5.968000000    -0.039000000
H     3.281000000     5.103000000    -0.256000000
C     2.029000000     4.269000000     1.158000000
C     3.023000000     3.400000000     1.641000000
C     2.741000000     2.639000000     2.768000000
H     3.423000000     1.846000000     3.064000000
C     1.612000000     2.846000000     3.490000000
O     1.300000000     2.017000000     4.538000000
C     0.348000000     0.913000000     4.283000000
H     0.148000000     0.921000000     3.201000000
C     0.945000000    -0.446000000     4.749000000
C     0.156000000    -1.595000000     4.585000000
H    -0.882000000    -1.479000000     4.284000000
C     2.259000000    -0.578000000     5.206000000
H     2.854000000     0.280000000     5.510000000
C     2.802000000    -1.853000000     5.342000000
O     4.085000000    -2.033000000     5.778000000
C     2.023000000    -2.975000000     5.201000000
H     2.445000000    -3.918000000     5.543000000
C     0.686000000    -2.892000000     4.886000000
O    -0.091000000    -4.033000000     4.691000000
C    -1.435000000    -4.057000000     4.697000000
C    -2.104000000    -4.496000000     3.545000000
H    -1.580000000    -4.846000000     2.659000000
C    -2.189000000    -3.683000000     5.808000000
H    -1.643000000    -3.224000000     6.628000000
C    -3.606000000    -3.804000000     5.783000000
H    -4.229000000    -3.566000000     6.642000000
C    -4.220000000    -4.116000000     4.532000000
H    -5.269000000    -3.871000000     4.385000000
C    -3.508000000    -4.516000000     3.471000000
O    -4.149000000    -4.954000000     2.323000000
C    -4.067000000    -4.095000000     1.233000000
C    -4.272000000    -4.603000000    -0.030000000
H    -4.402000000    -5.679000000    -0.118000000
C    -4.370000000    -3.769000000    -1.171000000
O    -4.639000000    -4.282000000    -2.426000000
C    -4.796000000    -3.603000000    -3.626000000
C    -3.674000000    -3.532000000    -4.457000000
H    -2.709000000    -3.913000000    -4.133000000
C    -6.074000000    -3.285000000    -4.073000000
H    -6.958000000    -3.407000000    -3.453000000
C    -6.202000000    -2.728000000    -5.344000000
H    -7.132000000    -2.268000000    -5.667000000
C    -5.108000000    -2.561000000    -6.181000000
H    -5.250000000    -2.114000000    -7.161000000
C    -3.835000000    -2.935000000    -5.710000000
O    -2.704000000    -2.695000000    -6.530000000
C    -1.706000000    -2.016000000    -5.932000000
C    -0.451000000    -2.577000000    -5.929000000
H    -0.179000000    -3.531000000    -6.373000000
C     0.584000000    -1.923000000    -5.300000000
O     1.813000000    -2.470000000    -5.265000000
C     2.932000000    -1.718000000    -5.172000000
C     3.804000000    -1.958000000    -4.121000000
H     3.535000000    -2.721000000    -3.395000000
C     3.270000000    -0.769000000    -6.161000000
H     2.617000000    -0.556000000    -7.003000000
C     4.500000000    -0.092000000    -6.084000000
H     4.868000000     0.549000000    -6.881000000
C     5.345000000    -0.291000000    -4.973000000
H     6.314000000     0.201000000    -4.953000000
C     5.028000000    -1.269000000    -4.043000000
O     5.877000000    -1.456000000    -3.030000000
C     5.694000000    -0.817000000    -1.765000000
C     6.264000000    -1.310000000    -0.520000000
H     6.876000000    -2.203000000    -0.613000000
C     5.945000000    -0.774000000     0.662000000
O     6.603000000    -1.269000000     1.778000000
C     6.391000000    -0.922000000     3.086000000
C     7.288000000    -0.162000000     3.845000000
H     8.136000000     0.312000000     3.357000000
C     7.094000000     0.026000000     5.247000000
H     7.850000000     0.606000000     5.769000000
C     6.058000000    -0.674000000     5.889000000
H     5.875000000    -0.667000000     6.961000000
C     5.089000000    -1.334000000     5.136000000
C     5.253000000    -1.484000000     3.701000000
H     4.530000000    -2.137000000     3.218000000
C     1.236000000    -2.139000000     1.096000000
H     1.971000000    -2.800000000     1.547000000
C     1.423000000    -0.748000000     1.301000000
H     2.317000000    -0.382000000     1.800000000
C     0.606000000     0.161000000     0.657000000
H     0.735000000     1.247000000     0.851000000
C    -0.418000000    -0.256000000    -0.194000000
H    -1.113000000     0.400000000    -0.711000000
C    -0.611000000    -1.638000000    -0.363000000
H    -1.294000000    -2.014000000    -1.121000000
C     0.189000000    -2.610000000     0.266000000
C     0.127000000    -4.080000000     0.008000000
O    -0.860000000    -4.472000000    -0.515000000
O     1.053000000    -4.776000000     0.293000000
O     3.244000000    -3.554000000    -1.167000000
H     2.436000000    -3.704000000    -0.677000000
H     3.900000000    -4.086000000    -0.716000000
O     6.544000000    -5.347000000    -0.177000000
H     6.140000000    -5.058000000    -0.995000000
H     5.808000000    -5.486000000     0.419000000
O    -4.168000000    -7.109000000    -3.488000000
H    -4.481000000    -6.888000000    -4.366000000
H    -3.357000000    -7.594000000    -3.638000000
O     3.025000000    -8.032000000     1.343000000
H     2.489000000    -8.640000000     1.852000000
H     3.785000000    -7.860000000     1.899000000
O     1.040000000   -10.329000000     1.014000000
H     1.840000000   -10.814000000     0.813000000
H     0.726000000   -10.020000000     0.164000000
O    -2.742000000    -9.287000000    -0.212000000
H    -2.694000000    -8.574000000    -0.849000000
H    -2.633000000    -8.858000000     0.636000000
O    -0.566000000    -7.212000000    -5.731000000
H    -1.240000000    -6.769000000    -6.246000000
H    -0.627000000    -6.813000000    -4.863000000
O     0.053000000    -7.631000000    -2.867000000
H    -0.854000000    -7.401000000    -2.669000000
H     0.574000000    -7.066000000    -2.298000000
O    -0.472000000   -10.264000000    -2.599000000
H    -0.301000000    -9.322000000    -2.598000000
H    -0.771000000   -10.452000000    -3.489000000
O     2.509000000    -5.132000000    -4.376000000
H     2.291000000    -4.219000000    -4.566000000
H     1.834000000    -5.416000000    -3.760000000
O     1.552000000    -7.087000000    -0.591000000
H     2.075000000    -7.489000000     0.103000000
H     1.398000000    -6.193000000    -0.288000000
O     0.217000000    -3.957000000    -2.924000000
H     0.826000000    -3.366000000    -2.480000000
H    -0.453000000    -4.147000000    -2.268000000
O     2.670000000    -9.336000000    -2.800000000
H     2.909000000    -9.975000000    -2.128000000
H     2.239000000    -8.632000000    -2.316000000
O     2.644000000    -6.908000000     5.058000000
H     2.277000000    -6.524000000     4.262000000
H     3.586000000    -6.945000000     4.894000000
O    -2.164000000    -6.611000000    -1.723000000
H    -1.773000000    -5.916000000    -1.194000000
H    -3.058000000    -6.314000000    -1.887000000
O     2.078000000    -5.191000000     2.830000000
H     1.329000000    -4.836000000     3.310000000
H     1.775000000    -5.250000000     1.924000000
O     4.307000000    -5.561000000     1.502000000
H     3.917000000    -5.284000000     2.331000000
H     3.706000000    -6.225000000     1.164000000
O    -0.554000000    -8.088000000     3.766000000
H    -1.272000000    -7.649000000     4.222000000
H    -0.392000000    -7.543000000     2.996000000
O    -0.755000000    -6.859000000     1.141000000
H    -0.133000000    -7.257000000     0.531000000
H    -0.875000000    -5.967000000     0.813000000
