215
-1472.49116
C    -3.691000000    -3.392000000    -0.298000000
H    -3.492000000    -2.925000000    -1.259000000
C    -4.207000000    -2.539000000     0.701000000
C    -4.408000000    -3.174000000     1.994000000
H    -4.907000000    -2.619000000     2.784000000
C    -4.250000000    -1.042000000     0.581000000
O    -5.072000000    -0.589000000    -0.568000000
H    -3.192000000    -0.792000000     0.416000000
O    -4.695000000    -0.338000000     1.801000000
C    -4.021000000     0.776000000     2.231000000
C    -3.089000000     0.656000000     3.276000000
H    -2.941000000    -0.299000000     3.773000000
C    -2.261000000     1.686000000     3.630000000
O    -1.265000000     1.459000000     4.566000000
C    -2.437000000     2.908000000     2.927000000
C    -1.618000000     4.204000000     3.304000000
H    -2.175000000     5.113000000     3.071000000
C    -0.288000000     4.237000000     2.597000000
C    -0.127000000     4.989000000     1.429000000
H    -0.962000000     5.505000000     0.961000000
H    -1.408000000     4.215000000     4.376000000
C    -3.426000000     3.032000000     1.976000000
H    -3.520000000     3.953000000     1.406000000
C    -4.199000000     1.985000000     1.617000000
C    -5.190000000     2.083000000     0.472000000
H    -5.518000000     3.124000000     0.449000000
H    -6.094000000     1.492000000     0.633000000
C    -4.495000000     1.788000000    -0.888000000
C    -3.881000000     2.804000000    -1.640000000
H    -3.810000000     3.798000000    -1.204000000
C    -4.526000000     0.491000000    -1.363000000
C    -3.847000000     0.165000000    -2.540000000
H    -3.894000000    -0.862000000    -2.894000000
C    -3.137000000     1.126000000    -3.195000000
O    -2.332000000     0.789000000    -4.263000000
C    -0.925000000     0.554000000    -3.971000000
C    -0.503000000    -0.761000000    -4.635000000
C     0.850000000    -0.945000000    -4.958000000
H     1.515000000    -0.087000000    -4.894000000
C    -1.385000000    -1.818000000    -4.837000000
H    -2.460000000    -1.703000000    -4.720000000
O    -0.234000000     1.678000000    -4.510000000
H    -0.714000000     0.494000000    -2.894000000
C    -3.200000000     2.480000000    -2.787000000
C    -2.462000000     3.571000000    -3.495000000
H    -2.740000000     4.614000000    -3.327000000
H    -2.486000000     3.332000000    -4.560000000
C    -1.005000000     3.600000000    -3.103000000
C    -0.594000000     4.590000000    -2.216000000
H    -1.349000000     5.129000000    -1.650000000
C     0.046000000     2.805000000    -3.717000000
C     1.364000000     2.942000000    -3.309000000
H     2.140000000     2.373000000    -3.815000000
C     1.690000000     3.831000000    -2.293000000
O     2.958000000     3.847000000    -1.750000000
C     3.175000000     3.118000000    -0.564000000
C     4.405000000     2.136000000    -0.661000000
C     4.744000000     1.523000000    -1.900000000
H     4.237000000     1.828000000    -2.812000000
C     5.024000000     1.637000000     0.527000000
H     4.708000000     1.994000000     1.504000000
O     3.318000000     3.992000000     0.592000000
H     2.306000000     2.465000000    -0.396000000
C     0.698000000     4.644000000    -1.778000000
C     1.018000000     5.624000000    -0.653000000
H     0.291000000     6.438000000    -0.614000000
H     1.936000000     6.188000000    -0.833000000
C     1.056000000     4.939000000     0.714000000
C     2.137000000     4.275000000     1.272000000
C     2.001000000     3.596000000     2.473000000
H     2.877000000     3.111000000     2.897000000
C     0.797000000     3.506000000     3.029000000
O     0.673000000     2.666000000     4.192000000
C     0.031000000     1.438000000     3.913000000
H    -0.109000000     1.406000000     2.823000000
C     0.765000000     0.176000000     4.310000000
C     0.166000000    -1.077000000     4.305000000
H    -0.856000000    -1.196000000     3.953000000
C     2.031000000     0.270000000     4.820000000
H     2.544000000     1.228000000     4.822000000
C     2.754000000    -0.860000000     5.117000000
O     4.081000000    -0.800000000     5.489000000
C     2.140000000    -2.103000000     5.076000000
H     2.746000000    -2.926000000     5.447000000
C     0.831000000    -2.222000000     4.680000000
O     0.168000000    -3.457000000     4.832000000
C    -1.190000000    -3.610000000     5.062000000
C    -2.030000000    -4.223000000     4.164000000
H    -1.684000000    -4.492000000     3.169000000
C    -1.699000000    -3.218000000     6.319000000
H    -0.989000000    -2.694000000     6.954000000
C    -3.042000000    -3.358000000     6.635000000
H    -3.440000000    -3.006000000     7.583000000
C    -3.838000000    -3.903000000     5.684000000
H    -4.885000000    -3.973000000     5.969000000
C    -3.363000000    -4.420000000     4.467000000
O    -4.180000000    -5.025000000     3.507000000
C    -4.112000000    -4.526000000     2.227000000
C    -3.644000000    -5.271000000     1.225000000
H    -3.395000000    -6.319000000     1.372000000
C    -3.368000000    -4.772000000    -0.054000000
O    -2.899000000    -5.628000000    -1.028000000
C    -3.212000000    -5.492000000    -2.384000000
C    -2.334000000    -4.770000000    -3.200000000
H    -1.534000000    -4.338000000    -2.604000000
C    -4.262000000    -6.238000000    -2.871000000
H    -4.859000000    -6.794000000    -2.152000000
C    -4.445000000    -6.278000000    -4.244000000
H    -5.223000000    -6.917000000    -4.652000000
C    -3.538000000    -5.616000000    -5.074000000
H    -3.630000000    -5.722000000    -6.152000000
C    -2.530000000    -4.738000000    -4.598000000
O    -1.617000000    -4.197000000    -5.468000000
C    -0.902000000    -3.051000000    -5.275000000
C     0.487000000    -3.248000000    -5.510000000
H     0.814000000    -4.201000000    -5.917000000
C     1.348000000    -2.197000000    -5.343000000
O     2.650000000    -2.308000000    -5.826000000
C     3.631000000    -1.328000000    -5.648000000
C     4.265000000    -1.305000000    -4.459000000
H     4.152000000    -2.080000000    -3.705000000
C     4.012000000    -0.567000000    -6.709000000
H     3.561000000    -0.678000000    -7.692000000
C     4.956000000     0.438000000    -6.506000000
H     5.154000000     1.186000000    -7.269000000
C     5.494000000     0.578000000    -5.220000000
H     6.365000000     1.215000000    -5.095000000
C     5.173000000    -0.300000000    -4.191000000
O     5.955000000    -0.260000000    -3.060000000
C     5.582000000     0.390000000    -1.943000000
C     6.302000000     0.029000000    -0.805000000
H     6.991000000    -0.797000000    -0.963000000
C     6.030000000     0.675000000     0.406000000
O     6.759000000     0.470000000     1.543000000
C     6.316000000     0.536000000     2.823000000
C     7.005000000     1.483000000     3.617000000
H     7.874000000     2.019000000     3.244000000
C     6.692000000     1.679000000     4.929000000
H     7.207000000     2.413000000     5.544000000
C     5.745000000     0.888000000     5.548000000
H     5.470000000     1.067000000     6.584000000
C     5.021000000    -0.012000000     4.816000000
C     5.270000000    -0.177000000     3.412000000
H     4.760000000    -0.949000000     2.840000000
C     1.153000000    -1.448000000    -1.490000000
H     1.713000000    -1.574000000    -2.413000000
C     0.729000000    -0.198000000    -1.061000000
H     1.006000000     0.697000000    -1.612000000
C    -0.235000000    -0.008000000    -0.076000000
H    -0.547000000     1.009000000     0.246000000
C    -0.671000000    -1.116000000     0.651000000
H    -1.347000000    -0.955000000     1.487000000
C    -0.289000000    -2.382000000     0.278000000
H    -0.814000000    -3.160000000     0.825000000
C     0.617000000    -2.543000000    -0.752000000
C     0.934000000    -3.943000000    -1.116000000
O     0.659000000    -4.880000000    -0.365000000
O     1.372000000    -4.215000000    -2.226000000
O     5.855000000    -4.040000000    -2.261000000
H     6.360000000    -3.749000000    -3.020000000
H     5.097000000    -4.489000000    -2.636000000
O     5.732000000    -5.422000000     0.490000000
H     6.358000000    -5.239000000     1.191000000
H     5.923000000    -4.764000000    -0.179000000
O    -4.964000000    -2.985000000    -3.849000000
H    -4.828000000    -3.725000000    -3.257000000
H    -5.743000000    -3.221000000    -4.353000000
O     3.596000000    -4.829000000    -3.453000000
H     3.405000000    -4.486000000    -4.326000000
H     2.815000000    -4.625000000    -2.939000000
O    -0.654000000    -7.027000000    -0.018000000
H    -0.040000000    -6.293000000    -0.011000000
H    -1.490000000    -6.638000000    -0.272000000
O     0.284000000    -6.614000000    -2.790000000
H    -0.262000000    -6.703000000    -2.009000000
H     0.759000000    -5.793000000    -2.657000000
O     1.937000000    -7.760000000    -4.925000000
H     1.565000000    -7.282000000    -4.183000000
H     1.818000000    -7.174000000    -5.672000000
O     2.339000000    -9.243000000     1.129000000
H     2.466000000    -9.214000000     2.077000000
H     2.713000000    -8.421000000     0.812000000
O    -2.890000000    -8.928000000    -0.606000000
H    -2.806000000    -9.816000000    -0.952000000
H    -3.814000000    -8.710000000    -0.725000000
O    -0.779000000    -7.056000000     3.199000000
H    -0.399000000    -7.436000000     2.406000000
H    -1.261000000    -7.778000000     3.602000000
O     7.675000000    -3.182000000    -0.418000000
H     6.958000000    -3.209000000    -1.052000000
H     8.274000000    -3.872000000    -0.703000000
O    -1.785000000    -9.617000000     1.875000000
H    -2.462000000    -9.232000000     2.431000000
H    -1.942000000    -9.239000000     1.010000000
O     3.055000000    -6.500000000    -0.178000000
H     3.806000000    -5.914000000    -0.079000000
H     2.317000000    -5.916000000    -0.354000000
O     4.494000000    -7.764000000    -2.123000000
H     4.648000000    -6.862000000    -2.405000000
H     3.826000000    -7.692000000    -1.442000000
O     0.304000000    -9.685000000    -0.592000000
H     0.955000000    -9.599000000     0.103000000
H    -0.231000000    -8.894000000    -0.519000000
O     1.245000000    -9.916000000    -3.402000000
H     1.381000000    -9.736000000    -2.472000000
H     1.764000000    -9.250000000    -3.853000000
O     1.622000000    -5.256000000     2.307000000
H     0.883000000    -5.643000000     2.776000000
H     1.338000000    -5.229000000     1.393000000
O    -1.283000000    -8.356000000    -4.218000000
H    -0.843000000    -9.194000000    -4.078000000
H    -0.743000000    -7.720000000    -3.749000000
O     3.745000000    -3.677000000     2.963000000
H     3.832000000    -3.132000000     2.180000000
H     2.972000000    -4.215000000     2.796000000
