215
-1441.73275
C    -4.225000000    -3.399000000    -0.339000000
H    -4.251000000    -2.937000000    -1.322000000
C    -4.485000000    -2.559000000     0.798000000
C    -4.395000000    -3.071000000     2.146000000
H    -4.530000000    -2.442000000     3.022000000
C    -4.511000000    -1.073000000     0.452000000
O    -5.059000000    -0.686000000    -0.867000000
H    -3.452000000    -0.777000000     0.435000000
O    -5.087000000    -0.231000000     1.549000000
C    -4.507000000     0.967000000     1.914000000
C    -3.649000000     0.906000000     3.003000000
H    -3.600000000    -0.060000000     3.498000000
C    -2.863000000     1.994000000     3.295000000
O    -1.853000000     1.739000000     4.174000000
C    -2.973000000     3.127000000     2.492000000
C    -2.056000000     4.279000000     2.855000000
H    -2.641000000     5.154000000     2.562000000
C    -0.649000000     4.290000000     2.273000000
C    -0.511000000     5.049000000     1.103000000
H    -1.333000000     5.534000000     0.582000000
H    -1.904000000     4.502000000     3.913000000
C    -3.717000000     3.155000000     1.266000000
H    -3.592000000     4.070000000     0.693000000
C    -4.524000000     2.027000000     0.999000000
C    -5.466000000     2.100000000    -0.168000000
H    -5.813000000     3.115000000    -0.375000000
H    -6.293000000     1.391000000    -0.087000000
C    -4.593000000     1.612000000    -1.314000000
C    -4.032000000     2.509000000    -2.234000000
H    -4.249000000     3.572000000    -2.171000000
C    -4.394000000     0.290000000    -1.552000000
C    -3.547000000    -0.169000000    -2.532000000
H    -3.339000000    -1.229000000    -2.650000000
C    -2.913000000     0.697000000    -3.360000000
O    -1.917000000     0.135000000    -4.215000000
C    -0.528000000     0.158000000    -3.892000000
C     0.252000000    -1.068000000    -4.160000000
C     1.626000000    -1.046000000    -4.325000000
H     2.212000000    -0.136000000    -4.220000000
C    -0.479000000    -2.286000000    -4.066000000
H    -1.549000000    -2.406000000    -3.914000000
O    -0.046000000     1.342000000    -4.633000000
H    -0.407000000     0.482000000    -2.848000000
C    -3.073000000     2.054000000    -3.206000000
C    -2.295000000     3.037000000    -4.112000000
H    -2.802000000     4.002000000    -4.168000000
H    -2.207000000     2.718000000    -5.152000000
C    -0.932000000     3.321000000    -3.593000000
C    -0.637000000     4.352000000    -2.635000000
H    -1.467000000     4.890000000    -2.182000000
C     0.196000000     2.481000000    -3.925000000
C     1.433000000     2.641000000    -3.277000000
H     2.101000000     1.837000000    -3.574000000
C     1.585000000     3.578000000    -2.323000000
O     2.860000000     3.762000000    -1.818000000
C     3.191000000     3.178000000    -0.495000000
C     4.582000000     2.611000000    -0.442000000
C     5.109000000     1.958000000    -1.559000000
H     4.676000000     2.052000000    -2.552000000
C     5.245000000     2.300000000     0.796000000
H     4.782000000     2.679000000     1.703000000
O     3.110000000     4.306000000     0.369000000
H     2.479000000     2.388000000    -0.214000000
C     0.595000000     4.505000000    -2.021000000
C     0.829000000     5.588000000    -0.930000000
H     0.038000000     6.336000000    -1.008000000
H     1.817000000     6.050000000    -0.996000000
C     0.735000000     4.978000000     0.474000000
C     1.868000000     4.418000000     1.074000000
C     1.692000000     3.717000000     2.192000000
H     2.500000000     3.130000000     2.622000000
C     0.475000000     3.633000000     2.778000000
O     0.286000000     2.691000000     3.751000000
C    -0.551000000     1.524000000     3.538000000
H    -0.629000000     1.375000000     2.450000000
C     0.166000000     0.279000000     4.046000000
C    -0.500000000    -0.688000000     4.797000000
H    -1.514000000    -0.521000000     5.150000000
C     1.565000000     0.086000000     3.812000000
H     2.100000000     0.811000000     3.205000000
C     2.203000000    -1.039000000     4.236000000
O     3.541000000    -1.223000000     3.947000000
C     1.473000000    -2.027000000     4.876000000
H     2.009000000    -2.932000000     5.151000000
C     0.184000000    -1.794000000     5.180000000
O    -0.432000000    -2.632000000     6.076000000
C    -1.732000000    -3.080000000     5.949000000
C    -2.272000000    -3.442000000     4.726000000
H    -1.660000000    -3.361000000     3.831000000
C    -2.425000000    -3.400000000     7.139000000
H    -1.907000000    -3.248000000     8.082000000
C    -3.643000000    -4.136000000     7.101000000
H    -4.145000000    -4.455000000     8.011000000
C    -4.064000000    -4.635000000     5.898000000
H    -4.925000000    -5.289000000     6.013000000
C    -3.371000000    -4.290000000     4.717000000
O    -3.814000000    -4.965000000     3.536000000
C    -3.965000000    -4.386000000     2.272000000
C    -3.909000000    -5.209000000     1.153000000
H    -3.792000000    -6.286000000     1.241000000
C    -3.983000000    -4.767000000    -0.205000000
O    -3.900000000    -5.669000000    -1.215000000
C    -3.460000000    -5.504000000    -2.513000000
C    -2.156000000    -5.110000000    -2.793000000
H    -1.547000000    -4.802000000    -1.947000000
C    -4.270000000    -5.922000000    -3.528000000
H    -5.298000000    -6.170000000    -3.274000000
C    -3.874000000    -5.791000000    -4.861000000
H    -4.515000000    -6.072000000    -5.693000000
C    -2.584000000    -5.353000000    -5.183000000
H    -2.220000000    -5.227000000    -6.200000000
C    -1.743000000    -5.002000000    -4.117000000
O    -0.402000000    -4.717000000    -4.431000000
C     0.223000000    -3.499000000    -4.342000000
C     1.592000000    -3.449000000    -4.623000000
H     2.106000000    -4.391000000    -4.793000000
C     2.271000000    -2.258000000    -4.621000000
O     3.650000000    -2.414000000    -4.568000000
C     4.517000000    -1.331000000    -4.690000000
C     5.136000000    -0.739000000    -3.582000000
H     4.944000000    -0.941000000    -2.531000000
C     4.981000000    -1.059000000    -5.991000000
H     4.486000000    -1.523000000    -6.839000000
C     5.946000000    -0.140000000    -6.155000000
H     6.296000000     0.132000000    -7.147000000
C     6.492000000     0.550000000    -5.128000000
H     7.124000000     1.426000000    -5.254000000
C     6.059000000     0.280000000    -3.826000000
O     6.849000000     0.794000000    -2.779000000
C     6.311000000     1.236000000    -1.566000000
C     7.012000000     1.009000000    -0.347000000
H     7.944000000     0.451000000    -0.380000000
C     6.469000000     1.504000000     0.833000000
O     7.131000000     1.362000000     1.918000000
C     6.390000000     0.931000000     3.012000000
C     6.526000000     1.576000000     4.186000000
H     7.308000000     2.316000000     4.334000000
C     5.713000000     1.377000000     5.282000000
H     5.823000000     1.981000000     6.179000000
C     4.631000000     0.523000000     5.123000000
H     3.907000000     0.312000000     5.906000000
C     4.543000000    -0.209000000     3.931000000
C     5.414000000    -0.021000000     2.907000000
H     5.256000000    -0.537000000     1.964000000
C     1.835000000    -1.571000000    -0.834000000
H     2.729000000    -1.949000000    -1.326000000
C     1.717000000    -0.152000000    -0.817000000
H     2.398000000     0.558000000    -1.279000000
C     0.514000000     0.374000000    -0.302000000
H     0.323000000     1.387000000    -0.309000000
C    -0.543000000    -0.472000000     0.076000000
H    -1.497000000    -0.035000000     0.358000000
C    -0.370000000    -1.853000000    -0.005000000
H    -1.179000000    -2.494000000     0.334000000
C     0.779000000    -2.407000000    -0.501000000
C     0.951000000    -3.836000000    -0.316000000
O     0.044000000    -4.544000000     0.076000000
O     1.969000000    -4.369000000    -0.669000000
O     7.069000000    -5.324000000    -2.158000000
H     7.389000000    -4.603000000    -2.701000000
H     6.120000000    -5.200000000    -2.131000000
O     4.195000000    -9.895000000    -0.843000000
H     3.879000000    -9.059000000    -1.187000000
H     3.409000000   -10.437000000    -0.770000000
O     6.950000000    -5.463000000     1.406000000
H     6.725000000    -4.793000000     0.759000000
H     7.034000000    -4.982000000     2.229000000
O     4.349000000    -4.086000000    -2.045000000
H     4.252000000    -3.348000000    -2.646000000
H     3.459000000    -4.273000000    -1.748000000
O     0.293000000    -5.450000000     6.984000000
H     0.548000000    -5.863000000     6.159000000
H    -0.060000000    -4.598000000     6.726000000
O    -0.262000000    -7.074000000     0.248000000
H    -0.036000000    -6.157000000     0.095000000
H    -1.118000000    -7.042000000     0.676000000
O     1.079000000    -6.425000000    -2.678000000
H     0.654000000    -6.180000000    -3.500000000
H     1.048000000    -5.629000000    -2.146000000
O     3.740000000    -7.910000000     1.908000000
H     3.431000000    -8.099000000     2.794000000
H     4.576000000    -8.372000000     1.843000000
O    -3.058000000    -9.283000000    -0.577000000
H    -2.858000000   -10.158000000    -0.908000000
H    -3.826000000    -9.407000000    -0.019000000
O     0.419000000    -6.586000000     4.515000000
H     0.535000000    -5.933000000     3.825000000
H    -0.452000000    -6.949000000     4.358000000
O     0.931000000    -9.569000000    -4.049000000
H     0.735000000    -8.913000000    -3.380000000
H     1.868000000    -9.738000000    -3.951000000
O     3.644000000    -4.940000000     1.230000000
H     3.992000000    -5.829000000     1.163000000
H     3.139000000    -4.820000000     0.425000000
O     3.098000000    -7.761000000    -1.815000000
H     3.572000000    -6.933000000    -1.735000000
H     2.223000000    -7.509000000    -2.111000000
O     2.837000000    -8.363000000     4.450000000
H     1.913000000    -8.115000000     4.476000000
H     3.184000000    -8.083000000     5.297000000
O     1.482000000    -9.054000000     0.693000000
H     2.340000000    -8.633000000     0.750000000
H     0.867000000    -8.330000000     0.576000000
O    -2.450000000    -9.094000000    -4.084000000
H    -2.723000000    -8.461000000    -3.420000000
H    -1.554000000    -9.326000000    -3.838000000
O     1.007000000    -5.118000000     2.498000000
H     1.898000000    -5.423000000     2.326000000
H     0.698000000    -4.792000000     1.653000000
O    -0.617000000    -8.586000000    -2.069000000
H    -0.097000000    -7.782000000    -2.073000000
H    -1.036000000    -8.596000000    -1.209000000
O     4.665000000    -3.884000000     4.093000000
H     4.604000000    -2.945000000     4.270000000
H     4.279000000    -3.989000000     3.223000000
