215
-1481.01644
C    -4.935000000    -3.056000000    -0.080000000
H    -5.094000000    -2.727000000    -1.104000000
C    -4.535000000    -2.122000000     0.832000000
C    -4.240000000    -2.565000000     2.149000000
H    -3.933000000    -1.885000000     2.940000000
C    -4.302000000    -0.712000000     0.382000000
O    -5.172000000    -0.302000000    -0.699000000
H    -3.250000000    -0.540000000     0.110000000
O    -4.627000000     0.194000000     1.475000000
C    -3.920000000     1.325000000     1.779000000
C    -3.030000000     1.241000000     2.850000000
H    -3.018000000     0.302000000     3.397000000
C    -2.113000000     2.263000000     3.079000000
O    -1.155000000     2.080000000     4.047000000
C    -2.202000000     3.433000000     2.282000000
C    -1.287000000     4.586000000     2.552000000
H    -1.797000000     5.525000000     2.328000000
C    -0.028000000     4.372000000     1.753000000
C     0.095000000     5.019000000     0.467000000
H    -0.755000000     5.573000000     0.078000000
H    -1.057000000     4.680000000     3.615000000
C    -3.100000000     3.571000000     1.214000000
H    -3.119000000     4.522000000     0.688000000
C    -3.958000000     2.483000000     0.931000000
C    -4.932000000     2.517000000    -0.205000000
H    -5.163000000     3.540000000    -0.509000000
H    -5.877000000     2.059000000     0.094000000
C    -4.442000000     1.823000000    -1.442000000
C    -3.612000000     2.546000000    -2.310000000
H    -3.445000000     3.616000000    -2.216000000
C    -4.526000000     0.450000000    -1.579000000
C    -3.819000000    -0.232000000    -2.543000000
H    -3.955000000    -1.297000000    -2.716000000
C    -3.002000000     0.487000000    -3.471000000
O    -2.126000000    -0.185000000    -4.169000000
C    -0.754000000    -0.263000000    -3.716000000
C    -0.286000000    -1.732000000    -3.822000000
C     1.067000000    -2.035000000    -3.690000000
H     1.753000000    -1.193000000    -3.631000000
C    -1.211000000    -2.798000000    -3.810000000
H    -2.282000000    -2.699000000    -3.965000000
O     0.081000000     0.681000000    -4.545000000
H    -0.666000000     0.079000000    -2.675000000
C    -2.945000000     1.902000000    -3.346000000
C    -2.053000000     2.730000000    -4.331000000
H    -2.450000000     3.730000000    -4.515000000
H    -2.072000000     2.242000000    -5.307000000
C    -0.632000000     2.898000000    -3.776000000
C    -0.285000000     4.010000000    -3.030000000
H    -1.064000000     4.759000000    -2.915000000
C     0.361000000     1.910000000    -4.009000000
C     1.629000000     2.147000000    -3.574000000
H     2.447000000     1.491000000    -3.858000000
C     1.971000000     3.245000000    -2.832000000
O     3.265000000     3.356000000    -2.474000000
C     3.524000000     2.965000000    -1.070000000
C     4.758000000     2.111000000    -1.039000000
C     5.169000000     1.365000000    -2.132000000
H     4.599000000     1.439000000    -3.055000000
C     5.460000000     1.983000000     0.154000000
H     5.063000000     2.482000000     1.034000000
O     3.606000000     4.083000000    -0.150000000
H     2.765000000     2.246000000    -0.728000000
C     1.017000000     4.226000000    -2.585000000
C     1.301000000     5.461000000    -1.602000000
H     0.466000000     6.123000000    -1.839000000
H     2.218000000     5.990000000    -1.869000000
C     1.291000000     4.942000000    -0.194000000
C     2.377000000     4.286000000     0.432000000
C     2.243000000     3.652000000     1.690000000
H     3.038000000     3.097000000     2.183000000
C     1.020000000     3.700000000     2.360000000
O     0.930000000     2.894000000     3.474000000
C     0.118000000     1.731000000     3.402000000
H    -0.132000000     1.433000000     2.373000000
C     0.743000000     0.577000000     4.195000000
C    -0.051000000    -0.420000000     4.741000000
H    -1.098000000    -0.483000000     4.455000000
C     2.151000000     0.530000000     4.350000000
H     2.760000000     1.286000000     3.862000000
C     2.742000000    -0.554000000     5.014000000
O     4.117000000    -0.603000000     5.185000000
C     1.932000000    -1.535000000     5.615000000
H     2.393000000    -2.324000000     6.203000000
C     0.557000000    -1.443000000     5.466000000
O    -0.147000000    -2.441000000     6.014000000
C    -1.475000000    -2.606000000     5.906000000
C    -1.982000000    -3.405000000     4.943000000
H    -1.270000000    -3.710000000     4.180000000
C    -2.325000000    -2.075000000     6.862000000
H    -1.909000000    -1.468000000     7.662000000
C    -3.690000000    -2.248000000     6.674000000
H    -4.401000000    -1.766000000     7.341000000
C    -4.196000000    -2.985000000     5.627000000
H    -5.274000000    -3.026000000     5.494000000
C    -3.337000000    -3.594000000     4.754000000
O    -3.779000000    -4.362000000     3.680000000
C    -4.179000000    -3.915000000     2.446000000
C    -4.576000000    -4.848000000     1.490000000
H    -4.533000000    -5.920000000     1.665000000
C    -4.923000000    -4.418000000     0.226000000
O    -5.322000000    -5.268000000    -0.755000000
C    -4.674000000    -5.187000000    -1.965000000
C    -3.275000000    -5.309000000    -2.156000000
H    -2.571000000    -5.262000000    -1.329000000
C    -5.587000000    -5.180000000    -3.022000000
H    -6.614000000    -4.853000000    -2.883000000
C    -5.095000000    -5.277000000    -4.274000000
H    -5.732000000    -5.189000000    -5.150000000
C    -3.735000000    -5.241000000    -4.567000000
H    -3.425000000    -5.159000000    -5.606000000
C    -2.791000000    -5.220000000    -3.506000000
O    -1.474000000    -5.278000000    -3.783000000
C    -0.728000000    -4.095000000    -3.640000000
C     0.635000000    -4.360000000    -3.632000000
H     1.006000000    -5.382000000    -3.656000000
C     1.533000000    -3.340000000    -3.602000000
O     2.882000000    -3.535000000    -3.421000000
C     3.910000000    -2.654000000    -3.950000000
C     4.813000000    -2.050000000    -3.137000000
H     4.782000000    -2.185000000    -2.059000000
C     4.047000000    -2.517000000    -5.298000000
H     3.391000000    -3.033000000    -5.993000000
C     5.000000000    -1.713000000    -5.903000000
H     4.978000000    -1.688000000    -6.989000000
C     5.836000000    -1.004000000    -5.063000000
H     6.519000000    -0.250000000    -5.446000000
C     5.753000000    -1.167000000    -3.710000000
O     6.602000000    -0.378000000    -3.012000000
C     6.229000000     0.426000000    -1.991000000
C     6.797000000     0.242000000    -0.726000000
H     7.536000000    -0.535000000    -0.546000000
C     6.398000000     0.992000000     0.361000000
O     6.984000000     0.865000000     1.560000000
C     6.333000000     1.064000000     2.766000000
C     6.743000000     2.191000000     3.473000000
H     7.448000000     2.937000000     3.114000000
C     6.367000000     2.278000000     4.801000000
H     6.757000000     3.123000000     5.363000000
C     5.503000000     1.335000000     5.374000000
H     5.141000000     1.590000000     6.367000000
C     4.986000000     0.338000000     4.591000000
C     5.396000000     0.183000000     3.258000000
H     5.153000000    -0.738000000     2.733000000
C     1.703000000    -1.767000000     0.381000000
H     2.540000000    -2.411000000     0.640000000
C     1.789000000    -0.396000000     0.377000000
H     2.719000000     0.088000000     0.662000000
C     0.673000000     0.363000000     0.107000000
H     0.736000000     1.460000000     0.131000000
C    -0.465000000    -0.269000000    -0.269000000
H    -1.329000000     0.374000000    -0.420000000
C    -0.562000000    -1.713000000    -0.349000000
H    -1.410000000    -2.294000000    -0.703000000
C     0.579000000    -2.495000000    -0.076000000
C     0.535000000    -3.999000000     0.027000000
O    -0.435000000    -4.650000000    -0.285000000
O     1.605000000    -4.541000000     0.168000000
O     0.737000000    -3.326000000    -6.825000000
H    -0.134000000    -3.258000000    -7.217000000
H     0.610000000    -3.068000000    -5.913000000
O     5.794000000    -7.772000000    -0.259000000
H     5.576000000    -7.437000000    -1.129000000
H     5.553000000    -8.698000000    -0.292000000
O     5.906000000    -5.885000000     1.523000000
H     5.710000000    -6.544000000     0.857000000
H     5.062000000    -5.473000000     1.708000000
O     3.915000000    -5.061000000    -1.317000000
H     3.656000000    -4.515000000    -2.060000000
H     3.117000000    -5.152000000    -0.797000000
O    -1.112000000    -7.213000000    -0.203000000
H    -1.100000000    -6.266000000    -0.339000000
H    -0.257000000    -7.511000000    -0.513000000
O     1.595000000    -7.001000000    -0.578000000
H     1.444000000    -6.121000000    -0.234000000
H     1.799000000    -7.528000000     0.194000000
O     2.248000000    -8.732000000     1.669000000
H     2.814000000    -8.418000000     2.374000000
H     1.427000000    -8.959000000     2.105000000
O    -2.369000000    -6.674000000     4.613000000
H    -1.644000000    -7.199000000     4.953000000
H    -1.998000000    -6.210000000     3.863000000
O     5.647000000    -2.968000000     3.687000000
H     5.374000000    -2.053000000     3.760000000
H     4.878000000    -3.420000000     3.340000000
O     2.599000000   -10.550000000    -0.574000000
H     2.192000000    -9.849000000    -0.065000000
H     3.536000000   -10.361000000    -0.535000000
O    -3.666000000    -8.753000000     3.525000000
H    -3.242000000    -8.015000000     3.964000000
H    -3.560000000    -8.569000000     2.592000000
O    -0.134000000    -9.871000000     2.968000000
H     0.256000000   -10.732000000     3.119000000
H    -0.964000000   -10.059000000     2.529000000
O     3.471000000    -4.274000000     2.436000000
H     2.778000000    -4.724000000     2.920000000
H     3.173000000    -4.283000000     1.526000000
O    -3.017000000    -8.844000000     0.910000000
H    -3.650000000    -8.861000000     0.193000000
H    -2.332000000    -8.247000000     0.612000000
O     4.650000000    -7.280000000    -2.692000000
H     4.980000000    -7.042000000    -3.558000000
H     4.386000000    -6.448000000    -2.300000000
O     3.188000000    -7.863000000     4.201000000
H     3.354000000    -7.137000000     4.803000000
H     4.041000000    -8.284000000     4.093000000
O    -0.764000000    -7.819000000    -4.484000000
H    -1.003000000    -6.893000000    -4.526000000
H     0.142000000    -7.819000000    -4.175000000
O    -0.992000000    -5.468000000     2.331000000
H    -0.922000000    -4.671000000     1.806000000
H    -0.819000000    -6.178000000     1.713000000
O     1.743000000    -7.793000000    -3.217000000
H     1.655000000    -7.502000000    -2.309000000
H     2.686000000    -7.896000000    -3.344000000
