215
-1446.12094
C    -3.866000000    -3.508000000    -0.549000000
H    -4.056000000    -3.195000000    -1.573000000
C    -3.909000000    -2.641000000     0.533000000
C    -3.502000000    -3.026000000     1.767000000
H    -3.402000000    -2.327000000     2.594000000
C    -3.990000000    -1.052000000     0.320000000
O    -4.804000000    -0.823000000    -0.884000000
H    -2.963000000    -0.712000000     0.122000000
O    -4.637000000    -0.352000000     1.402000000
C    -4.096000000     0.845000000     1.786000000
C    -3.206000000     0.832000000     2.817000000
H    -3.008000000    -0.004000000     3.482000000
C    -2.599000000     2.031000000     3.228000000
O    -1.739000000     1.948000000     4.328000000
C    -2.710000000     3.227000000     2.482000000
C    -2.004000000     4.516000000     2.799000000
H    -2.598000000     5.335000000     2.386000000
C    -0.603000000     4.497000000     2.250000000
C    -0.380000000     4.818000000     0.890000000
H    -1.271000000     5.076000000     0.324000000
H    -2.053000000     4.560000000     3.889000000
C    -3.583000000     3.184000000     1.364000000
H    -3.746000000     4.111000000     0.820000000
C    -4.228000000     1.993000000     1.007000000
C    -5.157000000     1.949000000    -0.170000000
H    -5.609000000     2.932000000    -0.321000000
H    -6.052000000     1.342000000    -0.021000000
C    -4.449000000     1.539000000    -1.462000000
C    -3.792000000     2.469000000    -2.283000000
H    -3.704000000     3.531000000    -2.070000000
C    -4.360000000     0.161000000    -1.713000000
C    -3.576000000    -0.276000000    -2.730000000
H    -3.498000000    -1.336000000    -2.958000000
C    -2.959000000     0.621000000    -3.587000000
O    -2.225000000     0.124000000    -4.597000000
C    -0.752000000     0.027000000    -4.369000000
C    -0.083000000    -1.251000000    -4.951000000
C     1.235000000    -1.310000000    -5.427000000
H     1.856000000    -0.419000000    -5.369000000
C    -0.853000000    -2.387000000    -5.109000000
H    -1.907000000    -2.290000000    -4.858000000
O    -0.020000000     1.181000000    -4.910000000
H    -0.533000000    -0.218000000    -3.319000000
C    -2.970000000     1.985000000    -3.343000000
C    -2.175000000     2.938000000    -4.196000000
H    -2.670000000     3.906000000    -4.092000000
H    -2.137000000     2.662000000    -5.252000000
C    -0.753000000     3.080000000    -3.725000000
C    -0.435000000     4.100000000    -2.841000000
H    -1.130000000     4.804000000    -2.391000000
C     0.265000000     2.229000000    -4.085000000
C     1.496000000     2.285000000    -3.498000000
H     2.305000000     1.661000000    -3.869000000
C     1.881000000     3.216000000    -2.563000000
O     3.058000000     3.162000000    -1.881000000
C     2.989000000     2.610000000    -0.541000000
C     4.148000000     1.600000000    -0.368000000
C     4.432000000     0.689000000    -1.396000000
H     3.776000000     0.715000000    -2.263000000
C     4.693000000     1.464000000     0.894000000
H     4.372000000     2.165000000     1.661000000
O     3.062000000     3.664000000     0.344000000
H     2.030000000     2.075000000    -0.490000000
C     0.877000000     4.158000000    -2.226000000
C     1.025000000     5.208000000    -1.148000000
H     0.487000000     6.138000000    -1.343000000
H     2.088000000     5.446000000    -1.228000000
C     0.842000000     4.657000000     0.268000000
C     1.866000000     4.124000000     0.992000000
C     1.655000000     3.691000000     2.343000000
H     2.456000000     3.131000000     2.817000000
C     0.417000000     3.875000000     2.978000000
O     0.201000000     3.250000000     4.146000000
C    -0.313000000     1.921000000     4.069000000
H     0.006000000     1.473000000     3.117000000
C     0.268000000     0.921000000     5.057000000
C    -0.439000000    -0.201000000     5.501000000
H    -1.456000000    -0.412000000     5.181000000
C     1.614000000     1.147000000     5.436000000
H     2.084000000     2.014000000     4.980000000
C     2.271000000     0.169000000     6.179000000
O     3.643000000     0.213000000     6.212000000
C     1.613000000    -0.936000000     6.608000000
H     2.163000000    -1.662000000     7.202000000
C     0.259000000    -1.090000000     6.330000000
O    -0.370000000    -2.076000000     6.981000000
C    -1.317000000    -2.828000000     6.299000000
C    -1.145000000    -3.417000000     5.049000000
H    -0.136000000    -3.368000000     4.648000000
C    -2.598000000    -2.840000000     6.899000000
H    -2.915000000    -2.320000000     7.799000000
C    -3.679000000    -3.295000000     6.189000000
H    -4.657000000    -3.056000000     6.600000000
C    -3.549000000    -3.874000000     4.928000000
H    -4.356000000    -4.384000000     4.407000000
C    -2.313000000    -3.895000000     4.320000000
O    -2.107000000    -4.428000000     3.087000000
C    -3.005000000    -4.274000000     1.987000000
C    -2.990000000    -5.197000000     0.991000000
H    -2.703000000    -6.232000000     1.153000000
C    -3.387000000    -4.831000000    -0.313000000
O    -3.139000000    -5.853000000    -1.244000000
C    -3.153000000    -5.662000000    -2.637000000
C    -2.011000000    -5.395000000    -3.342000000
H    -1.051000000    -5.437000000    -2.835000000
C    -4.392000000    -5.501000000    -3.229000000
H    -5.297000000    -5.568000000    -2.631000000
C    -4.490000000    -4.953000000    -4.511000000
H    -5.477000000    -4.767000000    -4.928000000
C    -3.352000000    -4.809000000    -5.267000000
H    -3.307000000    -4.486000000    -6.304000000
C    -2.125000000    -5.016000000    -4.677000000
O    -1.000000000    -4.788000000    -5.459000000
C    -0.281000000    -3.606000000    -5.583000000
C     1.057000000    -3.781000000    -5.911000000
H     1.519000000    -4.738000000    -6.143000000
C     1.771000000    -2.538000000    -5.818000000
O     3.151000000    -2.620000000    -6.229000000
C     4.117000000    -1.842000000    -5.474000000
C     4.224000000    -1.951000000    -4.076000000
H     3.576000000    -2.650000000    -3.554000000
C     4.946000000    -0.937000000    -6.146000000
H     4.816000000    -0.804000000    -7.216000000
C     5.880000000    -0.134000000    -5.450000000
H     6.509000000     0.614000000    -5.926000000
C     6.041000000    -0.364000000    -4.088000000
H     6.779000000     0.209000000    -3.533000000
C     5.281000000    -1.251000000    -3.438000000
O     5.427000000    -1.414000000    -2.104000000
C     5.303000000    -0.355000000    -1.213000000
C     5.822000000    -0.441000000     0.121000000
H     6.379000000    -1.359000000     0.293000000
C     5.589000000     0.450000000     1.128000000
O     6.338000000     0.428000000     2.303000000
C     5.888000000     1.023000000     3.446000000
C     6.376000000     2.199000000     3.933000000
H     7.082000000     2.686000000     3.266000000
C     6.030000000     2.776000000     5.133000000
H     6.488000000     3.691000000     5.500000000
C     5.051000000     2.076000000     5.882000000
H     4.689000000     2.460000000     6.832000000
C     4.437000000     0.915000000     5.360000000
C     4.834000000     0.397000000     4.118000000
H     4.425000000    -0.515000000     3.689000000
C     2.299000000    -1.743000000     0.534000000
H     3.335000000    -1.920000000     0.813000000
C     1.673000000    -0.548000000     0.903000000
H     2.090000000     0.000000000     1.743000000
C     0.462000000    -0.152000000     0.355000000
H     0.060000000     0.817000000     0.669000000
C    -0.162000000    -0.909000000    -0.589000000
H    -1.131000000    -0.554000000    -0.933000000
C     0.440000000    -2.092000000    -0.944000000
H    -0.062000000    -2.733000000    -1.665000000
C     1.693000000    -2.539000000    -0.439000000
C     2.320000000    -3.871000000    -0.796000000
O     1.686000000    -4.754000000    -1.388000000
O     3.357000000    -4.202000000    -0.221000000
O     2.969000000    -6.844000000     0.435000000
H     3.482000000    -7.525000000     0.001000000
H     3.198000000    -6.039000000    -0.030000000
O     7.779000000    -2.619000000     2.417000000
H     6.848000000    -2.821000000     2.328000000
H     7.967000000    -2.759000000     3.346000000
O     5.413000000    -5.705000000    -1.046000000
H     5.767000000    -5.986000000    -0.202000000
H     4.801000000    -5.003000000    -0.828000000
O    -0.107000000    -8.712000000     1.199000000
H    -0.170000000    -9.487000000     0.641000000
H    -1.015000000    -8.495000000     1.411000000
O    -0.997000000    -9.346000000    -2.118000000
H    -0.677000000    -8.457000000    -1.966000000
H    -0.255000000    -9.909000000    -1.893000000
O     7.070000000    -4.083000000    -2.766000000
H     7.466000000    -3.792000000    -1.944000000
H     6.221000000    -4.443000000    -2.508000000
O     2.104000000    -6.902000000    -3.380000000
H     2.031000000    -5.969000000    -3.182000000
H     1.899000000    -7.339000000    -2.554000000
O     1.714000000    -6.459000000     2.839000000
H     2.150000000    -6.720000000     2.028000000
H     1.697000000    -5.502000000     2.805000000
O     5.617000000    -7.522000000    -3.320000000
H     5.670000000    -8.116000000    -2.572000000
H     5.478000000    -6.658000000    -2.931000000
O     2.067000000    -8.764000000     3.889000000
H     2.662000000    -8.649000000     4.630000000
H     2.005000000    -7.894000000     3.494000000
O     4.268000000    -9.259000000    -0.341000000
H     4.340000000    -9.531000000     0.574000000
H     5.160000000    -9.324000000    -0.681000000
O     3.768000000    -3.487000000     4.470000000
H     4.269000000    -3.324000000     3.671000000
H     2.885000000    -3.691000000     4.162000000
O     6.657000000    -6.328000000     1.938000000
H     7.524000000    -6.051000000     2.236000000
H     6.237000000    -6.683000000     2.721000000
O     5.260000000    -3.825000000     1.602000000
H     4.617000000    -3.920000000     0.900000000
H     5.679000000    -4.684000000     1.662000000
O     8.522000000    -3.332000000    -0.508000000
H     8.102000000    -3.212000000     0.344000000
H     8.512000000    -2.461000000    -0.905000000
O     1.620000000    -3.856000000     2.639000000
H     2.250000000    -3.856000000     1.918000000
H     0.843000000    -3.430000000     2.277000000
O     0.298000000    -7.377000000    -5.475000000
H     0.856000000    -7.399000000    -4.697000000
H    -0.220000000    -6.577000000    -5.375000000
O     0.173000000    -7.012000000    -1.158000000
H     0.634000000    -6.181000000    -1.273000000
H     0.147000000    -7.143000000    -0.210000000
O     4.128000000    -6.701000000    -5.405000000
H     3.423000000    -6.678000000    -4.758000000
H     4.924000000    -6.818000000    -4.887000000
