215
-1465.86787
C    -2.401000000    -0.858000000    -4.064000000
H    -1.648000000    -1.617000000    -3.867000000
C    -1.882000000     0.444000000    -4.011000000
C    -2.799000000     1.506000000    -4.148000000
H    -2.464000000     2.538000000    -4.079000000
C    -0.381000000     0.630000000    -3.975000000
O     0.347000000    -0.418000000    -4.672000000
H    -0.099000000     0.639000000    -2.912000000
O    -0.019000000     1.916000000    -4.608000000
C     0.883000000     2.626000000    -3.863000000
C     0.324000000     3.469000000    -2.924000000
H    -0.739000000     3.652000000    -3.060000000
C     1.152000000     4.143000000    -1.987000000
O     0.545000000     4.903000000    -1.037000000
C     2.502000000     3.705000000    -1.854000000
C     3.361000000     4.328000000    -0.692000000
H     4.430000000     4.355000000    -0.915000000
C     3.154000000     3.565000000     0.643000000
C     4.197000000     2.671000000     0.914000000
H     4.999000000     2.494000000     0.202000000
H     3.147000000     5.393000000    -0.582000000
C     3.049000000     2.820000000    -2.756000000
H     4.097000000     2.548000000    -2.654000000
C     2.242000000     2.230000000    -3.796000000
C     2.844000000     1.095000000    -4.599000000
H     3.876000000     1.417000000    -4.751000000
H     2.365000000     1.010000000    -5.577000000
C     2.643000000    -0.202000000    -3.923000000
C     3.719000000    -0.790000000    -3.212000000
H     4.617000000    -0.178000000    -3.225000000
C     1.490000000    -0.928000000    -4.073000000
C     1.326000000    -2.193000000    -3.460000000
H     0.412000000    -2.779000000    -3.494000000
C     2.381000000    -2.686000000    -2.644000000
O     2.211000000    -3.833000000    -2.084000000
C     1.927000000    -3.744000000    -0.704000000
C     0.776000000    -4.687000000    -0.303000000
C     0.718000000    -5.348000000     0.907000000
H     1.596000000    -5.374000000     1.546000000
C    -0.324000000    -4.909000000    -1.175000000
H    -0.358000000    -4.349000000    -2.106000000
O     3.084000000    -4.055000000     0.109000000
H     1.608000000    -2.728000000    -0.429000000
C     3.537000000    -1.972000000    -2.545000000
C     4.753000000    -2.372000000    -1.706000000
H     5.602000000    -1.849000000    -2.152000000
H     4.905000000    -3.450000000    -1.799000000
C     4.492000000    -2.078000000    -0.207000000
C     5.036000000    -0.878000000     0.323000000
H     5.635000000    -0.212000000    -0.294000000
C     3.844000000    -2.997000000     0.576000000
C     3.609000000    -2.667000000     1.896000000
H     2.994000000    -3.326000000     2.503000000
C     4.033000000    -1.413000000     2.425000000
O     3.548000000    -1.090000000     3.649000000
C     2.427000000    -0.181000000     3.580000000
C     1.185000000    -0.640000000     4.450000000
C     0.947000000    -1.969000000     4.787000000
H     1.741000000    -2.631000000     4.453000000
C     0.153000000     0.219000000     4.725000000
H     0.270000000     1.225000000     4.330000000
O     2.879000000     1.135000000     3.948000000
H     2.048000000    -0.228000000     2.549000000
C     4.762000000    -0.543000000     1.634000000
C     5.247000000     0.801000000     2.242000000
H     6.219000000     1.059000000     1.817000000
H     5.485000000     0.593000000     3.287000000
C     4.144000000     1.856000000     2.075000000
C     3.048000000     2.009000000     2.960000000
C     2.010000000     2.935000000     2.691000000
H     1.199000000     3.103000000     3.395000000
C     2.095000000     3.683000000     1.578000000
O     1.050000000     4.549000000     1.339000000
C     0.119000000     4.269000000     0.227000000
H     0.076000000     3.186000000     0.039000000
C    -1.328000000     4.647000000     0.550000000
C    -2.224000000     5.060000000    -0.449000000
H    -1.929000000     5.239000000    -1.480000000
C    -1.846000000     4.506000000     1.819000000
H    -1.194000000     4.147000000     2.611000000
C    -3.108000000     4.886000000     2.123000000
O    -3.506000000     4.724000000     3.437000000
C    -3.970000000     5.369000000     1.195000000
H    -4.949000000     5.688000000     1.544000000
C    -3.512000000     5.424000000    -0.144000000
O    -4.438000000     5.863000000    -1.092000000
C    -4.493000000     5.417000000    -2.424000000
C    -4.544000000     4.068000000    -2.731000000
H    -4.318000000     3.357000000    -1.941000000
C    -4.924000000     6.333000000    -3.358000000
H    -5.046000000     7.367000000    -3.047000000
C    -5.298000000     5.945000000    -4.677000000
H    -5.637000000     6.726000000    -5.352000000
C    -5.217000000     4.635000000    -4.984000000
H    -5.502000000     4.290000000    -5.974000000
C    -4.878000000     3.676000000    -4.037000000
O    -5.190000000     2.323000000    -4.345000000
C    -4.222000000     1.262000000    -4.286000000
C    -4.640000000    -0.025000000    -4.394000000
H    -5.685000000    -0.226000000    -4.612000000
C    -3.777000000    -1.112000000    -4.239000000
O    -4.306000000    -2.401000000    -4.372000000
C    -3.561000000    -3.566000000    -4.253000000
C    -3.519000000    -4.227000000    -2.973000000
H    -4.135000000    -3.874000000    -2.151000000
C    -2.792000000    -4.006000000    -5.317000000
H    -2.875000000    -3.586000000    -6.316000000
C    -1.905000000    -5.080000000    -5.202000000
H    -1.268000000    -5.344000000    -6.042000000
C    -1.812000000    -5.743000000    -3.988000000
H    -1.242000000    -6.662000000    -3.876000000
C    -2.564000000    -5.274000000    -2.881000000
O    -2.455000000    -5.926000000    -1.699000000
C    -1.448000000    -5.686000000    -0.778000000
C    -1.461000000    -6.257000000     0.434000000
H    -2.225000000    -6.969000000     0.735000000
C    -0.307000000    -6.163000000     1.261000000
O    -0.289000000    -7.009000000     2.373000000
C     0.147000000    -6.526000000     3.597000000
C    -0.413000000    -5.309000000     4.090000000
H    -1.290000000    -4.899000000     3.596000000
C     1.158000000    -7.165000000     4.286000000
H     1.721000000    -7.980000000     3.839000000
C     1.659000000    -6.658000000     5.511000000
H     2.508000000    -7.133000000     5.995000000
C     1.150000000    -5.408000000     5.992000000
H     1.526000000    -4.953000000     6.905000000
C     0.074000000    -4.786000000     5.305000000
O    -0.471000000    -3.722000000     5.934000000
C    -0.136000000    -2.397000000     5.544000000
C    -1.142000000    -1.503000000     5.814000000
H    -2.088000000    -1.878000000     6.196000000
C    -1.040000000    -0.192000000     5.422000000
O    -2.155000000     0.655000000     5.596000000
C    -2.130000000     2.018000000     5.569000000
C    -1.376000000     2.705000000     6.498000000
H    -0.719000000     2.157000000     7.169000000
C    -1.403000000     4.125000000     6.439000000
H    -0.766000000     4.615000000     7.171000000
C    -2.154000000     4.835000000     5.482000000
H    -2.185000000     5.918000000     5.571000000
C    -2.801000000     4.132000000     4.494000000
C    -2.818000000     2.742000000     4.572000000
H    -3.378000000     2.176000000     3.832000000
C    -1.348000000    -0.954000000     1.797000000
H    -1.871000000    -1.552000000     2.539000000
C    -0.059000000    -1.328000000     1.288000000
H     0.596000000    -2.115000000     1.653000000
C     0.575000000    -0.417000000     0.414000000
H     1.626000000    -0.663000000     0.124000000
C    -0.115000000     0.607000000    -0.199000000
H     0.472000000     1.201000000    -0.895000000
C    -1.410000000     0.937000000     0.205000000
H    -2.002000000     1.680000000    -0.324000000
C    -2.023000000     0.112000000     1.195000000
C    -3.494000000     0.348000000     1.472000000
O    -4.156000000     1.058000000     0.748000000
O    -4.030000000    -0.198000000     2.473000000
O    -9.562000000    -2.508000000    -1.197000000
H    -8.629000000    -2.559000000    -1.404000000
H    -9.726000000    -1.575000000    -1.061000000
O    -5.628000000     1.404000000     3.734000000
H    -6.183000000     1.370000000     2.955000000
H    -4.962000000     0.732000000     3.583000000
O    -5.061000000    -2.764000000     0.413000000
H    -4.309000000    -2.233000000     0.677000000
H    -5.259000000    -3.298000000     1.182000000
O    -6.826000000    -3.014000000    -1.547000000
H    -6.804000000    -3.971000000    -1.556000000
H    -6.052000000    -2.761000000    -1.044000000
O    -7.703000000     5.311000000    -1.612000000
H    -7.354000000     4.591000000    -1.087000000
H    -7.506000000     6.097000000    -1.101000000
O    -6.063000000     0.947000000    -0.911000000
H    -5.701000000     0.264000000    -1.476000000
H    -5.333000000     1.202000000    -0.346000000
O    -9.935000000     3.078000000     1.817000000
H    -9.801000000     2.135000000     1.730000000
H    -9.156000000     3.389000000     2.279000000
O    -6.475000000     2.925000000     0.842000000
H    -6.944000000     2.371000000     0.217000000
H    -5.586000000     2.571000000     0.855000000
O    -4.208000000    -5.868000000     2.793000000
H    -3.760000000    -5.676000000     3.617000000
H    -4.882000000    -5.192000000     2.724000000
O    -3.626000000    -0.353000000     8.221000000
H    -4.197000000     0.096000000     8.844000000
H    -4.171000000    -1.048000000     7.854000000
O    -8.429000000     2.141000000    -1.114000000
H    -8.541000000     2.443000000    -2.015000000
H    -7.622000000     1.626000000    -1.132000000
O    -7.648000000    -2.303000000     4.824000000
H    -7.847000000    -1.367000000     4.798000000
H    -7.765000000    -2.548000000     5.742000000
O    -4.830000000    -2.554000000     7.200000000
H    -4.833000000    -2.164000000     6.325000000
H    -5.656000000    -3.035000000     7.250000000
O    -7.496000000     3.772000000     3.179000000
H    -6.905000000     3.443000000     3.856000000
H    -7.068000000     3.540000000     2.355000000
O    -6.977000000    -0.189000000     1.596000000
H    -6.155000000     0.197000000     1.294000000
H    -6.817000000    -1.133000000     1.587000000
O    -9.701000000     0.465000000     2.017000000
H    -8.853000000     0.069000000     2.218000000
H    -9.957000000     0.073000000     1.182000000
O    -6.031000000     1.447000000     6.967000000
H    -5.859000000     1.738000000     6.071000000
H    -6.906000000     1.061000000     6.930000000
O    -5.640000000    -3.148000000     3.037000000
H    -4.941000000    -2.688000000     3.501000000
H    -6.444000000    -2.862000000     3.470000000
O    -4.013000000    -1.368000000     4.862000000
H    -4.168000000    -0.946000000     4.017000000
H    -3.475000000    -0.742000000     5.347000000
