215
-1483.10714
C    -3.472000000    -3.245000000    -0.213000000
H    -3.174000000    -2.747000000    -1.131000000
C    -4.078000000    -2.551000000     0.858000000
C    -4.226000000    -3.196000000     2.066000000
H    -4.382000000    -2.619000000     2.974000000
C    -4.094000000    -1.037000000     0.706000000
O    -4.813000000    -0.675000000    -0.484000000
H    -3.034000000    -0.764000000     0.607000000
O    -4.601000000    -0.304000000     1.866000000
C    -3.965000000     0.797000000     2.315000000
C    -3.216000000     0.727000000     3.449000000
H    -3.092000000    -0.264000000     3.879000000
C    -2.462000000     1.801000000     3.854000000
O    -1.509000000     1.589000000     4.836000000
C    -2.566000000     3.038000000     3.137000000
C    -1.629000000     4.221000000     3.459000000
H    -2.053000000     5.193000000     3.201000000
C    -0.389000000     4.007000000     2.662000000
C    -0.213000000     4.789000000     1.473000000
H    -0.963000000     5.470000000     1.081000000
H    -1.352000000     4.212000000     4.516000000
C    -3.391000000     3.145000000     2.023000000
H    -3.499000000     4.117000000     1.550000000
C    -4.130000000     2.052000000     1.561000000
C    -5.098000000     2.193000000     0.373000000
H    -5.410000000     3.227000000     0.211000000
H    -6.076000000     1.769000000     0.610000000
C    -4.541000000     1.736000000    -0.927000000
C    -3.826000000     2.694000000    -1.681000000
H    -3.948000000     3.744000000    -1.431000000
C    -4.340000000     0.362000000    -1.284000000
C    -3.590000000    -0.019000000    -2.395000000
H    -3.394000000    -1.069000000    -2.599000000
C    -3.063000000     0.964000000    -3.241000000
O    -2.299000000     0.589000000    -4.302000000
C    -0.893000000     0.624000000    -4.136000000
C    -0.232000000    -0.631000000    -4.727000000
C     1.076000000    -0.647000000    -5.236000000
H     1.623000000     0.291000000    -5.185000000
C    -0.906000000    -1.881000000    -4.785000000
H    -1.899000000    -2.075000000    -4.387000000
O    -0.343000000     1.869000000    -4.759000000
H    -0.627000000     0.507000000    -3.075000000
C    -3.061000000     2.310000000    -2.763000000
C    -2.447000000     3.482000000    -3.595000000
H    -2.927000000     4.460000000    -3.533000000
H    -2.601000000     3.199000000    -4.638000000
C    -0.957000000     3.667000000    -3.288000000
C    -0.609000000     4.485000000    -2.202000000
H    -1.407000000     4.970000000    -1.645000000
C     0.021000000     2.834000000    -3.910000000
C     1.383000000     3.014000000    -3.563000000
H     2.111000000     2.342000000    -4.011000000
C     1.700000000     3.831000000    -2.474000000
O     2.912000000     3.614000000    -1.950000000
C     3.020000000     2.773000000    -0.770000000
C     4.234000000     1.922000000    -0.826000000
C     4.686000000     1.363000000    -1.995000000
H     4.354000000     1.740000000    -2.959000000
C     4.895000000     1.595000000     0.354000000
H     4.553000000     1.970000000     1.314000000
O     3.108000000     3.701000000     0.378000000
H     2.158000000     2.100000000    -0.648000000
C     0.720000000     4.616000000    -1.807000000
C     1.098000000     5.394000000    -0.603000000
H     0.514000000     6.315000000    -0.653000000
H     2.127000000     5.752000000    -0.674000000
C     0.979000000     4.653000000     0.728000000
C     1.999000000     3.806000000     1.132000000
C     1.850000000     3.010000000     2.271000000
H     2.610000000     2.281000000     2.541000000
C     0.717000000     3.194000000     3.065000000
O     0.596000000     2.442000000     4.218000000
C    -0.242000000     1.266000000     4.166000000
H    -0.376000000     0.943000000     3.123000000
C     0.424000000     0.097000000     4.836000000
C    -0.302000000    -0.880000000     5.541000000
H    -1.306000000    -0.646000000     5.885000000
C     1.769000000    -0.155000000     4.508000000
H     2.420000000     0.517000000     3.955000000
C     2.285000000    -1.417000000     4.769000000
O     3.590000000    -1.664000000     4.432000000
C     1.612000000    -2.399000000     5.443000000
H     2.045000000    -3.372000000     5.663000000
C     0.286000000    -2.134000000     5.851000000
O    -0.469000000    -3.174000000     6.332000000
C    -1.790000000    -3.299000000     6.024000000
C    -2.113000000    -3.862000000     4.772000000
H    -1.413000000    -4.178000000     4.003000000
C    -2.762000000    -2.871000000     6.893000000
H    -2.417000000    -2.369000000     7.794000000
C    -4.043000000    -3.059000000     6.534000000
H    -4.784000000    -2.558000000     7.151000000
C    -4.409000000    -3.812000000     5.397000000
H    -5.464000000    -3.965000000     5.183000000
C    -3.414000000    -4.216000000     4.527000000
O    -3.676000000    -5.049000000     3.491000000
C    -3.719000000    -4.535000000     2.226000000
C    -3.201000000    -5.207000000     1.148000000
H    -2.765000000    -6.200000000     1.226000000
C    -3.010000000    -4.557000000    -0.042000000
O    -2.302000000    -5.193000000    -1.004000000
C    -2.664000000    -5.098000000    -2.342000000
C    -1.664000000    -4.891000000    -3.296000000
H    -0.636000000    -4.746000000    -2.975000000
C    -3.994000000    -5.191000000    -2.819000000
H    -4.757000000    -5.530000000    -2.123000000
C    -4.246000000    -5.151000000    -4.147000000
H    -5.261000000    -5.298000000    -4.507000000
C    -3.232000000    -4.921000000    -5.077000000
H    -3.468000000    -4.871000000    -6.137000000
C    -1.967000000    -4.580000000    -4.600000000
O    -0.974000000    -4.263000000    -5.504000000
C    -0.289000000    -3.018000000    -5.361000000
C     1.011000000    -2.985000000    -5.814000000
H     1.603000000    -3.864000000    -6.056000000
C     1.695000000    -1.785000000    -5.722000000
O     2.831000000    -1.694000000    -6.391000000
C     3.927000000    -0.973000000    -6.073000000
C     4.496000000    -1.060000000    -4.824000000
H     4.012000000    -1.659000000    -4.056000000
C     4.527000000    -0.115000000    -7.044000000
H     4.024000000     0.015000000    -7.999000000
C     5.624000000     0.640000000    -6.727000000
H     6.140000000     1.226000000    -7.483000000
C     6.068000000     0.665000000    -5.380000000
H     6.898000000     1.273000000    -5.028000000
C     5.540000000    -0.203000000    -4.433000000
O     6.083000000    -0.248000000    -3.178000000
C     5.711000000     0.370000000    -2.021000000
C     6.337000000     0.027000000    -0.832000000
H     6.998000000    -0.836000000    -0.816000000
C     5.961000000     0.711000000     0.360000000
O     6.634000000     0.509000000     1.563000000
C     6.003000000     0.438000000     2.783000000
C     6.669000000     0.948000000     3.847000000
H     7.589000000     1.514000000     3.731000000
C     6.099000000     0.796000000     5.139000000
H     6.534000000     1.202000000     6.049000000
C     4.995000000     0.006000000     5.270000000
H     4.545000000    -0.116000000     6.252000000
C     4.442000000    -0.655000000     4.182000000
C     4.957000000    -0.433000000     2.895000000
H     4.568000000    -1.031000000     2.074000000
C     0.636000000    -2.190000000    -0.820000000
H     1.220000000    -2.620000000    -1.630000000
C     0.398000000    -0.819000000    -0.758000000
H     0.663000000    -0.228000000    -1.630000000
C    -0.307000000    -0.266000000     0.297000000
H    -0.522000000     0.798000000     0.289000000
C    -0.634000000    -0.974000000     1.434000000
H    -1.003000000    -0.617000000     2.392000000
C    -0.338000000    -2.354000000     1.356000000
H    -0.561000000    -2.878000000     2.282000000
C     0.331000000    -2.970000000     0.266000000
C     0.739000000    -4.425000000     0.253000000
O     0.532000000    -5.178000000     1.239000000
O     1.004000000    -4.918000000    -0.873000000
O     5.287000000    -3.908000000    -1.554000000
H     5.489000000    -3.867000000    -2.488000000
H     4.350000000    -4.101000000    -1.520000000
O     5.593000000    -7.621000000     0.064000000
H     5.137000000    -8.032000000    -0.671000000
H     6.449000000    -8.049000000     0.084000000
O     4.853000000    -5.603000000     2.295000000
H     5.335000000    -5.076000000     2.933000000
H     5.526000000    -5.932000000     1.699000000
O     3.687000000    -5.277000000     6.516000000
H     3.445000000    -5.503000000     5.618000000
H     2.920000000    -5.514000000     7.038000000
O     2.742000000    -4.440000000    -2.718000000
H     2.457000000    -4.941000000    -3.482000000
H     2.110000000    -4.664000000    -2.036000000
O    -0.629000000    -6.688000000     6.018000000
H    -1.517000000    -7.006000000     6.179000000
H    -0.538000000    -6.702000000     5.065000000
O    -0.520000000    -7.414000000     0.362000000
H     0.318000000    -7.846000000     0.524000000
H    -0.329000000    -6.480000000     0.448000000
O     1.584000000    -7.088000000    -2.451000000
H     2.513000000    -7.165000000    -2.231000000
H     1.250000000    -6.422000000    -1.851000000
O     2.248000000    -9.582000000     1.055000000
H     2.142000000    -9.660000000     2.003000000
H     2.595000000    -8.700000000     0.924000000
O    -2.977000000    -7.547000000     4.570000000
H    -2.855000000    -6.641000000     4.285000000
H    -3.915000000    -7.707000000     4.466000000
O    -1.555000000    -8.902000000    -1.508000000
H    -2.498000000    -8.918000000    -1.343000000
H    -1.236000000    -8.155000000    -1.001000000
O    -0.747000000    -8.976000000     3.399000000
H    -0.680000000    -9.831000000     3.824000000
H    -1.446000000    -8.526000000     3.875000000
O    -3.015000000    -8.539000000     1.419000000
H    -3.538000000    -8.347000000     0.641000000
H    -2.142000000    -8.209000000     1.208000000
O     2.677000000    -7.004000000     0.917000000
H     3.371000000    -6.452000000     1.276000000
H     1.885000000    -6.472000000     0.993000000
O     0.848000000   -10.516000000    -1.210000000
H     1.307000000   -10.156000000    -0.451000000
H     0.337000000    -9.782000000    -1.551000000
O     5.864000000    -3.522000000     3.900000000
H     6.485000000    -2.795000000     3.951000000
H     5.025000000    -3.107000000     3.702000000
O    -0.349000000    -6.452000000     3.380000000
H    -0.174000000    -7.299000000     2.971000000
H    -0.257000000    -5.819000000     2.668000000
O    -0.278000000    -8.549000000    -4.134000000
H     0.340000000    -8.150000000    -3.522000000
H    -1.071000000    -8.689000000    -3.617000000
O     2.755000000    -6.061000000     4.008000000
H     3.240000000    -5.995000000     3.186000000
H     1.836000000    -5.991000000     3.751000000
