215
-1430.72215
C    -3.311000000    -2.773000000    -0.053000000
H    -3.148000000    -2.414000000    -1.066000000
C    -3.547000000    -1.905000000     1.040000000
C    -3.454000000    -2.446000000     2.363000000
H    -3.570000000    -1.772000000     3.209000000
C    -3.618000000    -0.420000000     0.797000000
O    -4.579000000    -0.126000000    -0.316000000
H    -2.598000000    -0.118000000     0.519000000
O    -4.116000000     0.276000000     1.980000000
C    -3.494000000     1.442000000     2.332000000
C    -2.600000000     1.417000000     3.416000000
H    -2.432000000     0.474000000     3.929000000
C    -1.761000000     2.490000000     3.617000000
O    -0.832000000     2.482000000     4.632000000
C    -1.834000000     3.634000000     2.793000000
C    -0.871000000     4.812000000     2.878000000
H    -1.252000000     5.711000000     2.390000000
C     0.471000000     4.508000000     2.268000000
C     0.683000000     5.014000000     0.966000000
H    -0.038000000     5.639000000     0.445000000
H    -0.703000000     5.001000000     3.941000000
C    -2.826000000     3.725000000     1.792000000
H    -2.963000000     4.685000000     1.302000000
C    -3.658000000     2.616000000     1.614000000
C    -4.680000000     2.658000000     0.505000000
H    -5.020000000     3.692000000     0.420000000
H    -5.548000000     2.047000000     0.761000000
C    -4.152000000     2.166000000    -0.826000000
C    -3.596000000     3.077000000    -1.724000000
H    -3.600000000     4.142000000    -1.510000000
C    -4.216000000     0.823000000    -1.205000000
C    -3.799000000     0.420000000    -2.485000000
H    -3.909000000    -0.606000000    -2.828000000
C    -3.201000000     1.330000000    -3.316000000
O    -2.705000000     0.828000000    -4.500000000
C    -1.321000000     0.511000000    -4.507000000
C    -1.094000000    -0.844000000    -5.150000000
C     0.104000000    -1.238000000    -5.696000000
H     0.944000000    -0.553000000    -5.615000000
C    -2.094000000    -1.823000000    -5.150000000
H    -3.078000000    -1.763000000    -4.692000000
O    -0.449000000     1.495000000    -5.018000000
H    -0.920000000     0.358000000    -3.494000000
C    -3.078000000     2.647000000    -2.931000000
C    -2.270000000     3.542000000    -3.806000000
H    -2.602000000     4.571000000    -3.651000000
H    -2.608000000     3.294000000    -4.815000000
C    -0.672000000     3.409000000    -3.617000000
C    -0.146000000     4.211000000    -2.590000000
H    -0.767000000     5.020000000    -2.216000000
C     0.191000000     2.444000000    -4.209000000
C     1.422000000     2.213000000    -3.739000000
H     1.973000000     1.357000000    -4.119000000
C     1.930000000     3.062000000    -2.762000000
O     3.210000000     2.888000000    -2.305000000
C     3.219000000     2.247000000    -0.940000000
C     4.143000000     1.018000000    -0.956000000
C     3.801000000     0.004000000    -1.813000000
H     3.101000000     0.314000000    -2.585000000
C     5.052000000     0.660000000     0.086000000
H     5.241000000     1.399000000     0.860000000
O     3.658000000     3.207000000     0.045000000
H     2.239000000     1.879000000    -0.601000000
C     1.162000000     4.109000000    -2.188000000
C     1.848000000     5.073000000    -1.193000000
H     1.341000000     6.039000000    -1.224000000
H     2.863000000     5.371000000    -1.463000000
C     1.766000000     4.591000000     0.268000000
C     2.723000000     3.794000000     0.877000000
C     2.654000000     3.392000000     2.221000000
H     3.393000000     2.749000000     2.693000000
C     1.552000000     3.812000000     2.912000000
O     1.342000000     3.258000000     4.155000000
C     0.464000000     2.081000000     4.225000000
H     0.432000000     1.838000000     3.152000000
C     1.090000000     0.919000000     4.955000000
C     0.264000000     0.067000000     5.678000000
H    -0.797000000     0.271000000     5.796000000
C     2.486000000     0.624000000     4.846000000
H     3.163000000     1.209000000     4.229000000
C     3.001000000    -0.557000000     5.499000000
O     4.303000000    -1.073000000     5.393000000
C     2.110000000    -1.343000000     6.187000000
H     2.497000000    -2.236000000     6.671000000
C     0.757000000    -1.116000000     6.243000000
O    -0.015000000    -2.057000000     6.883000000
C    -1.290000000    -2.453000000     6.530000000
C    -1.460000000    -3.189000000     5.324000000
H    -0.643000000    -3.452000000     4.657000000
C    -2.333000000    -2.248000000     7.378000000
H    -2.294000000    -1.585000000     8.239000000
C    -3.603000000    -2.608000000     7.081000000
H    -4.439000000    -2.239000000     7.670000000
C    -3.787000000    -3.329000000     5.858000000
H    -4.732000000    -3.835000000     5.673000000
C    -2.724000000    -3.692000000     4.954000000
O    -2.988000000    -4.369000000     3.804000000
C    -3.100000000    -3.736000000     2.556000000
C    -3.018000000    -4.628000000     1.501000000
H    -2.880000000    -5.698000000     1.631000000
C    -3.137000000    -4.126000000     0.192000000
O    -2.720000000    -4.951000000    -0.853000000
C    -3.329000000    -5.074000000    -2.051000000
C    -2.752000000    -4.562000000    -3.239000000
H    -1.764000000    -4.113000000    -3.186000000
C    -4.642000000    -5.512000000    -2.044000000
H    -5.116000000    -5.819000000    -1.114000000
C    -5.299000000    -5.589000000    -3.288000000
H    -6.331000000    -5.923000000    -3.348000000
C    -4.719000000    -5.101000000    -4.476000000
H    -5.245000000    -5.145000000    -5.426000000
C    -3.415000000    -4.601000000    -4.426000000
O    -2.816000000    -4.202000000    -5.579000000
C    -1.902000000    -3.111000000    -5.693000000
C    -0.706000000    -3.392000000    -6.308000000
H    -0.536000000    -4.409000000    -6.653000000
C     0.258000000    -2.441000000    -6.355000000
O     1.529000000    -2.815000000    -6.762000000
C     2.643000000    -2.403000000    -6.136000000
C     2.788000000    -2.454000000    -4.748000000
H     2.068000000    -2.964000000    -4.113000000
C     3.507000000    -1.541000000    -6.833000000
H     3.306000000    -1.401000000    -7.892000000
C     4.626000000    -0.951000000    -6.290000000
H     5.305000000    -0.361000000    -6.901000000
C     4.769000000    -1.070000000    -4.918000000
H     5.614000000    -0.606000000    -4.416000000
C     3.911000000    -1.849000000    -4.141000000
O     4.156000000    -2.084000000    -2.816000000
C     4.491000000    -1.230000000    -1.801000000
C     5.357000000    -1.551000000    -0.855000000
H     5.842000000    -2.519000000    -0.767000000
C     5.652000000    -0.588000000     0.064000000
O     6.458000000    -0.906000000     1.206000000
C     6.321000000    -0.373000000     2.455000000
C     6.991000000     0.735000000     2.863000000
H     7.761000000     1.100000000     2.188000000
C     6.797000000     1.356000000     4.118000000
H     7.252000000     2.282000000     4.458000000
C     5.914000000     0.720000000     5.011000000
H     5.707000000     1.234000000     5.947000000
C     5.287000000    -0.494000000     4.641000000
C     5.495000000    -1.041000000     3.366000000
H     4.932000000    -1.949000000     3.162000000
C     0.721000000    -1.807000000    -1.199000000
H     0.862000000    -2.325000000    -2.145000000
C     0.531000000    -0.487000000    -0.960000000
H     0.334000000     0.220000000    -1.761000000
C     0.390000000    -0.071000000     0.329000000
H     0.093000000     0.902000000     0.498000000
C     0.444000000    -1.007000000     1.397000000
H     0.440000000    -0.531000000     2.375000000
C     0.731000000    -2.291000000     1.104000000
H     0.760000000    -3.011000000     1.917000000
C     0.909000000    -2.735000000    -0.209000000
C     1.122000000    -4.235000000    -0.488000000
O     1.490000000    -5.048000000     0.413000000
O     1.223000000    -4.607000000    -1.702000000
O     4.289000000    -5.143000000    -1.935000000
H     4.575000000    -5.171000000    -2.849000000
H     3.987000000    -4.244000000    -1.807000000
O     5.221000000    -6.624000000     0.061000000
H     4.860000000    -6.180000000    -0.706000000
H     6.148000000    -6.742000000    -0.145000000
O     3.773000000    -4.267000000     1.456000000
H     4.382000000    -4.846000000     0.997000000
H     2.908000000    -4.531000000     1.142000000
O     4.065000000    -8.366000000    -3.140000000
H     4.966000000    -8.494000000    -2.843000000
H     4.152000000    -7.915000000    -3.980000000
O     1.191000000    -5.338000000    -4.292000000
H     2.143000000    -5.245000000    -4.277000000
H     0.918000000    -5.155000000    -3.393000000
O    -0.691000000    -6.632000000    -1.630000000
H     0.231000000    -6.889000000    -1.632000000
H    -0.674000000    -5.679000000    -1.715000000
O     4.052000000    -5.421000000    -4.737000000
H     4.581000000    -4.658000000    -4.972000000
H     4.060000000    -5.969000000    -5.522000000
O     1.817000000    -7.343000000    -1.844000000
H     2.716000000    -7.575000000    -2.077000000
H     1.881000000    -6.453000000    -1.496000000
O     3.301000000    -9.941000000     1.540000000
H     3.426000000   -10.203000000     2.452000000
H     2.992000000    -9.036000000     1.591000000
O    -2.098000000    -8.567000000    -0.054000000
H    -1.617000000    -7.867000000    -0.495000000
H    -2.672000000    -8.927000000    -0.731000000
O     2.310000000    -7.388000000     1.085000000
H     2.790000000    -7.589000000     0.281000000
H     1.912000000    -6.533000000     0.918000000
O     0.524000000    -9.654000000    -4.169000000
H     0.224000000    -8.745000000    -4.136000000
H     0.351000000    -9.995000000    -3.291000000
O     1.517000000    -7.270000000    -6.214000000
H     1.846000000    -6.756000000    -6.952000000
H     1.355000000    -6.625000000    -5.526000000
O    -1.504000000    -9.240000000     2.471000000
H    -1.664000000    -9.024000000     1.552000000
H    -2.350000000    -9.550000000     2.794000000
O     0.050000000    -9.867000000    -1.554000000
H    -0.814000000    -9.677000000    -1.189000000
H     0.578000000    -9.100000000    -1.333000000
O     4.695000000    -7.480000000     2.490000000
H     5.178000000    -7.124000000     1.744000000
H     3.780000000    -7.471000000     2.208000000
O     0.455000000    -5.494000000     3.060000000
H     0.540000000    -5.288000000     2.129000000
H     0.295000000    -6.437000000     3.083000000
O    -1.429000000    -7.979000000    -3.787000000
H    -1.019000000    -7.546000000    -3.039000000
H    -2.292000000    -8.243000000    -3.468000000
O     2.764000000    -4.241000000     4.011000000
H     1.925000000    -4.668000000     3.835000000
H     3.244000000    -4.306000000     3.186000000
