215
-1437.47595
C    -4.731000000    -2.183000000     0.834000000
H    -4.726000000    -2.001000000    -0.237000000
C    -4.527000000    -1.172000000     1.724000000
C    -4.428000000    -1.533000000     3.107000000
H    -4.244000000    -0.721000000     3.806000000
C    -4.284000000     0.229000000     1.279000000
O    -5.126000000     0.565000000     0.168000000
H    -3.236000000     0.291000000     0.953000000
O    -4.372000000     1.174000000     2.312000000
C    -3.381000000     2.086000000     2.414000000
C    -2.450000000     1.788000000     3.474000000
H    -2.484000000     0.934000000     4.145000000
C    -1.444000000     2.760000000     3.574000000
O    -0.413000000     2.420000000     4.394000000
C    -1.376000000     3.888000000     2.709000000
C    -0.239000000     4.815000000     2.819000000
H    -0.562000000     5.777000000     2.417000000
C     0.868000000     4.350000000     1.864000000
C     1.020000000     4.802000000     0.536000000
H     0.312000000     5.517000000     0.124000000
H     0.254000000     4.874000000     3.791000000
C    -2.394000000     4.093000000     1.730000000
H    -2.385000000     5.013000000     1.152000000
C    -3.397000000     3.225000000     1.577000000
C    -4.481000000     3.440000000     0.491000000
H    -4.554000000     4.503000000     0.251000000
H    -5.498000000     3.238000000     0.834000000
C    -4.098000000     2.611000000    -0.732000000
C    -3.331000000     3.159000000    -1.754000000
H    -3.208000000     4.237000000    -1.807000000
C    -4.427000000     1.233000000    -0.806000000
C    -3.920000000     0.519000000    -1.865000000
H    -4.134000000    -0.542000000    -1.959000000
C    -3.199000000     1.127000000    -2.932000000
O    -2.809000000     0.336000000    -4.032000000
C    -1.391000000     0.006000000    -4.121000000
C    -1.137000000    -1.494000000    -4.547000000
C     0.041000000    -1.868000000    -5.258000000
H     0.868000000    -1.226000000    -5.549000000
C    -1.856000000    -2.510000000    -3.934000000
H    -2.718000000    -2.113000000    -3.404000000
O    -0.698000000     0.929000000    -5.000000000
H    -0.881000000     0.078000000    -3.149000000
C    -2.847000000     2.477000000    -2.825000000
C    -2.179000000     3.223000000    -4.079000000
H    -2.364000000     4.299000000    -4.105000000
H    -2.594000000     2.805000000    -4.998000000
C    -0.721000000     3.019000000    -3.875000000
C    -0.011000000     4.000000000    -3.167000000
H    -0.517000000     4.820000000    -2.665000000
C     0.021000000     1.959000000    -4.440000000
C     1.400000000     1.756000000    -4.189000000
H     2.046000000     0.919000000    -4.445000000
C     2.047000000     2.669000000    -3.327000000
O     3.347000000     2.280000000    -2.939000000
C     3.447000000     1.714000000    -1.632000000
C     4.476000000     0.476000000    -1.670000000
C     4.525000000    -0.535000000    -2.663000000
H     3.989000000    -0.310000000    -3.582000000
C     5.204000000     0.227000000    -0.505000000
H     5.085000000     0.923000000     0.321000000
O     3.765000000     2.670000000    -0.604000000
H     2.392000000     1.471000000    -1.436000000
C     1.326000000     3.752000000    -2.748000000
C     2.044000000     4.685000000    -1.749000000
H     1.584000000     5.666000000    -1.885000000
H     3.039000000     5.012000000    -2.059000000
C     1.952000000     4.291000000    -0.333000000
C     2.813000000     3.248000000     0.178000000
C     2.795000000     2.854000000     1.512000000
H     3.309000000     1.986000000     1.916000000
C     1.867000000     3.440000000     2.322000000
O     1.794000000     3.044000000     3.645000000
C     0.861000000     2.016000000     3.790000000
H     0.578000000     1.641000000     2.795000000
C     1.424000000     0.756000000     4.560000000
C     0.500000000    -0.107000000     5.122000000
H    -0.553000000     0.137000000     5.010000000
C     2.774000000     0.533000000     4.532000000
H     3.451000000     1.218000000     4.028000000
C     3.262000000    -0.640000000     5.065000000
O     4.574000000    -0.929000000     4.978000000
C     2.380000000    -1.599000000     5.634000000
H     2.823000000    -2.547000000     5.928000000
C     0.999000000    -1.345000000     5.561000000
O     0.130000000    -2.309000000     5.975000000
C    -1.227000000    -2.074000000     6.233000000
C    -2.163000000    -2.717000000     5.425000000
H    -1.964000000    -3.272000000     4.511000000
C    -1.612000000    -1.437000000     7.395000000
H    -0.848000000    -0.911000000     7.962000000
C    -2.950000000    -1.332000000     7.807000000
H    -3.347000000    -0.887000000     8.716000000
C    -3.876000000    -1.903000000     6.936000000
H    -4.928000000    -1.815000000     7.194000000
C    -3.492000000    -2.593000000     5.771000000
O    -4.433000000    -3.121000000     4.954000000
C    -4.639000000    -2.810000000     3.594000000
C    -4.877000000    -3.818000000     2.649000000
H    -4.978000000    -4.876000000     2.877000000
C    -4.913000000    -3.509000000     1.290000000
O    -5.001000000    -4.633000000     0.469000000
C    -4.831000000    -4.489000000    -0.886000000
C    -3.601000000    -4.713000000    -1.532000000
H    -2.720000000    -4.857000000    -0.913000000
C    -5.964000000    -4.196000000    -1.664000000
H    -6.919000000    -4.005000000    -1.182000000
C    -5.818000000    -4.011000000    -3.052000000
H    -6.637000000    -3.785000000    -3.730000000
C    -4.565000000    -4.241000000    -3.632000000
H    -4.368000000    -4.120000000    -4.694000000
C    -3.447000000    -4.620000000    -2.884000000
O    -2.292000000    -4.819000000    -3.527000000
C    -1.531000000    -3.894000000    -4.063000000
C    -0.550000000    -4.219000000    -4.934000000
H    -0.450000000    -5.230000000    -5.321000000
C     0.210000000    -3.181000000    -5.534000000
O     1.331000000    -3.518000000    -6.273000000
C     2.621000000    -3.018000000    -6.059000000
C     3.287000000    -3.080000000    -4.839000000
H     2.833000000    -3.688000000    -4.061000000
C     3.166000000    -2.327000000    -7.115000000
H     2.617000000    -2.252000000    -8.050000000
C     4.317000000    -1.663000000    -7.064000000
H     4.660000000    -1.070000000    -7.907000000
C     5.001000000    -1.707000000    -5.845000000
H     5.933000000    -1.213000000    -5.582000000
C     4.552000000    -2.496000000    -4.754000000
O     5.348000000    -2.631000000    -3.608000000
C     5.295000000    -1.679000000    -2.610000000
C     6.020000000    -1.897000000    -1.452000000
H     6.572000000    -2.830000000    -1.365000000
C     5.996000000    -0.932000000    -0.398000000
O     6.598000000    -1.295000000     0.747000000
C     6.459000000    -0.682000000     1.916000000
C     7.320000000     0.345000000     2.116000000
H     8.048000000     0.656000000     1.370000000
C     7.212000000     0.964000000     3.378000000
H     7.871000000     1.824000000     3.469000000
C     6.332000000     0.556000000     4.357000000
H     6.258000000     1.060000000     5.317000000
C     5.483000000    -0.451000000     4.089000000
C     5.548000000    -1.129000000     2.910000000
H     4.930000000    -2.009000000     2.751000000
C     1.060000000    -1.414000000    -0.226000000
H     1.798000000    -1.701000000    -0.970000000
C     0.476000000    -0.110000000    -0.314000000
H     0.794000000     0.593000000    -1.080000000
C    -0.428000000     0.294000000     0.667000000
H    -0.885000000     1.365000000     0.657000000
C    -0.643000000    -0.542000000     1.750000000
H    -1.302000000    -0.181000000     2.535000000
C    -0.128000000    -1.818000000     1.824000000
H    -0.443000000    -2.411000000     2.679000000
C     0.767000000    -2.246000000     0.872000000
C     1.347000000    -3.675000000     0.882000000
O     1.228000000    -4.289000000     1.930000000
O     1.980000000    -4.093000000    -0.068000000
O     5.844000000    -6.796000000    -1.926000000
H     5.353000000    -6.250000000    -1.312000000
H     5.748000000    -7.685000000    -1.586000000
O     3.969000000    -6.197000000    -4.114000000
H     3.268000000    -6.142000000    -3.465000000
H     4.766000000    -6.317000000    -3.597000000
O     1.716000000    -5.190000000    -2.478000000
H     1.796000000    -4.673000000    -1.677000000
H     0.772000000    -5.292000000    -2.603000000
O     5.986000000    -4.581000000     4.740000000
H     5.658000000    -4.297000000     3.887000000
H     6.685000000    -5.202000000     4.533000000
O     0.117000000    -9.247000000     2.950000000
H     0.540000000    -8.408000000     2.765000000
H     0.381000000    -9.456000000     3.846000000
O     0.526000000    -8.574000000    -3.783000000
H     0.854000000    -8.554000000    -2.884000000
H     0.673000000    -9.475000000    -4.071000000
O    -1.778000000    -5.712000000     1.450000000
H    -1.969000000    -4.778000000     1.536000000
H    -1.117000000    -5.884000000     2.120000000
O    -0.805000000    -7.242000000    -0.994000000
H     0.106000000    -7.463000000    -0.803000000
H    -1.105000000    -6.770000000    -0.218000000
O     2.426000000   -10.306000000    -0.162000000
H     2.852000000    -9.832000000    -0.877000000
H     2.261000000    -9.638000000     0.503000000
O     1.709000000    -5.034000000     4.515000000
H     0.929000000    -5.032000000     5.070000000
H     1.398000000    -4.726000000     3.664000000
O     1.304000000    -6.998000000     2.089000000
H     1.390000000    -6.049000000     1.994000000
H     2.175000000    -7.338000000     1.883000000
O     4.622000000    -5.043000000    -0.091000000
H     3.779000000    -4.685000000    -0.369000000
H     5.244000000    -4.329000000    -0.231000000
O     7.450000000    -4.515000000     0.729000000
H     8.071000000    -4.029000000     1.273000000
H     6.921000000    -5.011000000     1.354000000
O     3.813000000    -7.533000000     1.029000000
H     4.390000000    -6.780000000     1.163000000
H     4.336000000    -8.287000000     1.302000000
O    -4.015000000    -7.660000000     0.778000000
H    -3.787000000    -6.731000000     0.799000000
H    -3.662000000    -8.013000000     1.594000000
O     2.509000000    -7.486000000    -1.517000000
H     2.946000000    -7.212000000    -0.711000000
H     2.192000000    -6.671000000    -1.907000000
O     3.975000000    -6.650000000     5.532000000
H     3.471000000    -6.127000000     4.909000000
H     4.416000000    -6.005000000     6.084000000
O     3.843000000    -4.300000000     2.773000000
H     3.589000000    -4.169000000     1.859000000
H     3.017000000    -4.275000000     3.257000000
O    -0.421000000    -6.026000000     6.155000000
H    -1.366000000    -6.148000000     6.060000000
H    -0.335000000    -5.263000000     6.726000000
