215
-1459.32299
C    -3.993000000    -2.330000000     0.514000000
H    -4.049000000    -2.092000000    -0.545000000
C    -3.860000000    -1.286000000     1.477000000
C    -3.898000000    -1.624000000     2.839000000
H    -3.842000000    -0.823000000     3.571000000
C    -3.839000000     0.178000000     1.013000000
O    -4.740000000     0.324000000    -0.122000000
H    -2.781000000     0.369000000     0.781000000
O    -4.276000000     1.138000000     2.048000000
C    -3.428000000     2.237000000     2.203000000
C    -2.517000000     2.178000000     3.196000000
H    -2.575000000     1.309000000     3.845000000
C    -1.497000000     3.145000000     3.266000000
O    -0.604000000     2.856000000     4.132000000
C    -1.446000000     4.162000000     2.319000000
C    -0.359000000     5.197000000     2.350000000
H    -0.599000000     6.180000000     1.940000000
C     0.860000000     4.639000000     1.660000000
C     1.077000000     4.966000000     0.338000000
H     0.334000000     5.536000000    -0.214000000
H     0.000000000     5.297000000     3.377000000
C    -2.380000000     4.250000000     1.297000000
H    -2.251000000     4.957000000     0.481000000
C    -3.382000000     3.234000000     1.280000000
C    -4.467000000     3.307000000     0.188000000
H    -4.639000000     4.359000000    -0.046000000
H    -5.444000000     2.958000000     0.529000000
C    -4.091000000     2.456000000    -1.012000000
C    -3.317000000     3.094000000    -1.973000000
H    -3.195000000     4.161000000    -1.803000000
C    -4.211000000     1.060000000    -1.193000000
C    -3.932000000     0.383000000    -2.358000000
H    -4.048000000    -0.693000000    -2.463000000
C    -3.224000000     1.085000000    -3.314000000
O    -2.618000000     0.459000000    -4.376000000
C    -1.256000000     0.018000000    -4.270000000
C    -0.948000000    -1.403000000    -4.578000000
C     0.392000000    -1.878000000    -4.721000000
H     1.208000000    -1.185000000    -4.536000000
C    -2.048000000    -2.278000000    -4.727000000
H    -3.049000000    -1.876000000    -4.864000000
O    -0.468000000     0.924000000    -5.041000000
H    -0.897000000     0.143000000    -3.238000000
C    -2.837000000     2.460000000    -3.152000000
C    -2.018000000     3.256000000    -4.122000000
H    -2.385000000     4.283000000    -4.077000000
H    -2.211000000     2.843000000    -5.115000000
C    -0.572000000     3.163000000    -3.902000000
C     0.152000000     4.075000000    -3.125000000
H    -0.431000000     4.962000000    -2.892000000
C     0.084000000     1.974000000    -4.308000000
C     1.463000000     1.772000000    -4.033000000
H     1.898000000     0.818000000    -4.318000000
C     2.118000000     2.663000000    -3.209000000
O     3.361000000     2.309000000    -2.740000000
C     3.510000000     1.817000000    -1.441000000
C     4.413000000     0.550000000    -1.390000000
C     4.998000000     0.026000000    -2.552000000
H     4.582000000     0.321000000    -3.512000000
C     4.630000000    -0.169000000    -0.241000000
H     4.066000000     0.219000000     0.603000000
O     3.957000000     2.864000000    -0.501000000
H     2.551000000     1.398000000    -1.103000000
C     1.488000000     3.826000000    -2.761000000
C     2.244000000     4.799000000    -1.830000000
H     1.883000000     5.802000000    -2.064000000
H     3.297000000     4.739000000    -2.116000000
C     2.130000000     4.419000000    -0.391000000
C     3.049000000     3.613000000     0.222000000
C     2.880000000     3.243000000     1.592000000
H     3.402000000     2.400000000     2.038000000
C     1.770000000     3.760000000     2.315000000
O     1.612000000     3.349000000     3.600000000
C     0.607000000     2.250000000     3.736000000
H     0.520000000     1.632000000     2.830000000
C     1.098000000     1.203000000     4.740000000
C     0.143000000     0.487000000     5.513000000
H    -0.873000000     0.872000000     5.545000000
C     2.330000000     0.581000000     4.579000000
H     2.933000000     0.902000000     3.733000000
C     2.742000000    -0.490000000     5.355000000
O     4.008000000    -1.093000000     5.360000000
C     1.793000000    -1.002000000     6.194000000
H     2.094000000    -1.804000000     6.863000000
C     0.538000000    -0.486000000     6.410000000
O    -0.358000000    -1.139000000     7.272000000
C    -1.728000000    -1.239000000     6.972000000
C    -2.039000000    -2.129000000     5.921000000
H    -1.164000000    -2.608000000     5.489000000
C    -2.750000000    -0.772000000     7.776000000
H    -2.493000000    -0.187000000     8.656000000
C    -4.085000000    -1.088000000     7.492000000
H    -4.855000000    -0.814000000     8.208000000
C    -4.384000000    -1.904000000     6.381000000
H    -5.397000000    -2.229000000     6.156000000
C    -3.385000000    -2.390000000     5.591000000
O    -3.677000000    -3.299000000     4.568000000
C    -3.805000000    -2.925000000     3.283000000
C    -3.789000000    -3.949000000     2.283000000
H    -3.760000000    -4.955000000     2.692000000
C    -3.821000000    -3.616000000     0.904000000
O    -3.813000000    -4.715000000     0.077000000
C    -4.242000000    -4.738000000    -1.284000000
C    -3.297000000    -4.513000000    -2.318000000
H    -2.274000000    -4.199000000    -2.126000000
C    -5.530000000    -5.155000000    -1.542000000
H    -6.290000000    -5.172000000    -0.765000000
C    -5.933000000    -5.314000000    -2.847000000
H    -6.956000000    -5.512000000    -3.156000000
C    -5.046000000    -5.098000000    -3.889000000
H    -5.482000000    -5.137000000    -4.885000000
C    -3.758000000    -4.702000000    -3.639000000
O    -2.907000000    -4.564000000    -4.699000000
C    -1.840000000    -3.651000000    -4.710000000
C    -0.548000000    -4.184000000    -4.679000000
H    -0.423000000    -5.257000000    -4.565000000
C     0.568000000    -3.266000000    -4.702000000
O     1.910000000    -3.696000000    -4.648000000
C     3.018000000    -3.031000000    -5.143000000
C     3.950000000    -2.624000000    -4.196000000
H     3.676000000    -2.895000000    -3.179000000
C     3.262000000    -2.923000000    -6.473000000
H     2.611000000    -3.353000000    -7.230000000
C     4.491000000    -2.420000000    -6.870000000
H     4.683000000    -2.502000000    -7.937000000
C     5.469000000    -2.045000000    -5.946000000
H     6.458000000    -1.705000000    -6.242000000
C     5.168000000    -2.089000000    -4.616000000
O     6.127000000    -1.697000000    -3.734000000
C     5.735000000    -1.157000000    -2.525000000
C     6.053000000    -1.740000000    -1.346000000
H     6.705000000    -2.609000000    -1.308000000
C     5.453000000    -1.297000000    -0.143000000
O     5.699000000    -1.931000000     1.092000000
C     5.856000000    -1.222000000     2.247000000
C     6.739000000    -0.154000000     2.473000000
H     7.350000000     0.179000000     1.638000000
C     6.752000000     0.514000000     3.693000000
H     7.582000000     1.182000000     3.908000000
C     5.784000000     0.161000000     4.636000000
H     5.808000000     0.621000000     5.620000000
C     4.938000000    -0.914000000     4.446000000
C     4.957000000    -1.563000000     3.251000000
H     4.309000000    -2.408000000     3.033000000
C     1.693000000    -2.002000000     0.225000000
H     2.383000000    -2.522000000    -0.435000000
C     1.186000000    -0.741000000    -0.244000000
H     1.460000000    -0.501000000    -1.268000000
C     0.380000000    -0.031000000     0.617000000
H    -0.004000000     0.912000000     0.317000000
C     0.078000000    -0.549000000     1.875000000
H    -0.557000000    -0.015000000     2.577000000
C     0.575000000    -1.807000000     2.278000000
H     0.249000000    -2.250000000     3.216000000
C     1.301000000    -2.570000000     1.439000000
C     1.705000000    -4.010000000     1.848000000
O     1.676000000    -4.276000000     3.046000000
O     2.129000000    -4.772000000     1.047000000
O     4.101000000    -6.667000000    -2.375000000
H     4.135000000    -7.478000000    -1.868000000
H     4.501000000    -6.011000000    -1.805000000
O     7.633000000    -3.564000000     4.308000000
H     8.138000000    -3.743000000     5.102000000
H     7.273000000    -4.414000000     4.057000000
O     4.395000000    -4.628000000    -0.378000000
H     4.869000000    -3.996000000     0.162000000
H     3.508000000    -4.634000000    -0.018000000
O     3.627000000    -4.668000000     4.798000000
H     2.930000000    -4.544000000     4.154000000
H     3.542000000    -3.919000000     5.389000000
O     2.500000000    -6.959000000     5.797000000
H     1.623000000    -6.768000000     5.465000000
H     3.002000000    -6.164000000     5.617000000
O     0.475000000    -5.589000000    -1.287000000
H     0.452000000    -5.287000000    -0.379000000
H     1.350000000    -5.353000000    -1.596000000
O    -1.359000000    -7.040000000     0.803000000
H    -1.443000000    -6.694000000    -0.086000000
H    -2.007000000    -7.743000000     0.848000000
O     0.623000000    -3.830000000     7.833000000
H     0.308000000    -4.090000000     6.967000000
H     0.275000000    -2.948000000     7.959000000
O    -0.893000000    -7.079000000    -3.022000000
H    -0.103000000    -7.092000000    -3.564000000
H    -0.649000000    -6.562000000    -2.255000000
O     4.782000000    -8.874000000    -0.437000000
H     5.243000000    -8.145000000    -0.021000000
H     4.287000000    -9.281000000     0.274000000
O     0.206000000    -9.521000000     4.020000000
H     0.995000000    -9.573000000     4.559000000
H     0.156000000    -8.602000000     3.757000000
O     0.346000000    -6.645000000     3.110000000
H    -0.314000000    -6.832000000     2.443000000
H     0.678000000    -5.776000000     2.881000000
O     6.058000000    -6.856000000     0.734000000
H     6.288000000    -5.927000000     0.743000000
H     6.857000000    -7.304000000     1.012000000
O     3.130000000    -7.087000000     1.471000000
H     3.859000000    -6.998000000     0.857000000
H     2.776000000    -6.201000000     1.552000000
O     7.458000000    -4.182000000     0.448000000
H     8.209000000    -3.853000000    -0.047000000
H     7.259000000    -3.485000000     1.073000000
O     0.905000000    -8.598000000     0.870000000
H     1.732000000    -8.133000000     0.999000000
H     0.235000000    -7.916000000     0.926000000
O     3.512000000    -8.642000000     3.842000000
H     3.099000000    -8.277000000     3.060000000
H     3.191000000    -8.095000000     4.560000000
O     5.900000000    -6.117000000     3.797000000
H     5.421000000    -6.583000000     3.112000000
H     5.233000000    -5.591000000     4.239000000
O     0.064000000    -4.758000000     5.297000000
H     0.632000000    -4.422000000     4.603000000
H    -0.412000000    -5.481000000     4.887000000
