215
-1464.58970
C    -4.913000000    -2.055000000     0.861000000
H    -4.973000000    -1.738000000    -0.177000000
C    -4.498000000    -1.132000000     1.794000000
C    -4.544000000    -1.467000000     3.189000000
H    -4.085000000    -0.787000000     3.901000000
C    -4.112000000     0.313000000     1.454000000
O    -4.893000000     0.865000000     0.423000000
H    -3.108000000     0.224000000     1.013000000
O    -4.209000000     1.208000000     2.688000000
C    -3.193000000     2.163000000     2.710000000
C    -2.140000000     1.879000000     3.600000000
H    -2.243000000     0.975000000     4.195000000
C    -1.039000000     2.706000000     3.585000000
O     0.055000000     2.306000000     4.355000000
C    -0.928000000     3.843000000     2.784000000
C     0.342000000     4.669000000     2.779000000
H     0.172000000     5.740000000     2.644000000
C     1.431000000     4.145000000     1.837000000
C     1.555000000     4.659000000     0.543000000
H     0.765000000     5.302000000     0.165000000
H     0.634000000     4.636000000     3.831000000
C    -1.996000000     4.201000000     1.940000000
H    -1.952000000     5.114000000     1.352000000
C    -3.110000000     3.333000000     1.869000000
C    -4.131000000     3.626000000     0.850000000
H    -4.333000000     4.678000000     0.637000000
H    -5.080000000     3.281000000     1.266000000
C    -3.773000000     2.836000000    -0.375000000
C    -2.886000000     3.392000000    -1.345000000
H    -2.563000000     4.427000000    -1.276000000
C    -4.177000000     1.511000000    -0.559000000
C    -3.764000000     0.771000000    -1.726000000
H    -4.220000000    -0.195000000    -1.923000000
C    -3.054000000     1.458000000    -2.655000000
O    -2.689000000     0.718000000    -3.774000000
C    -1.283000000     0.255000000    -3.706000000
C    -1.214000000    -1.240000000    -4.027000000
C    -0.059000000    -1.758000000    -4.550000000
H     0.791000000    -1.090000000    -4.664000000
C    -2.244000000    -2.082000000    -3.609000000
H    -3.155000000    -1.677000000    -3.176000000
O    -0.370000000     1.057000000    -4.538000000
H    -0.902000000     0.464000000    -2.695000000
C    -2.565000000     2.727000000    -2.489000000
C    -1.804000000     3.491000000    -3.588000000
H    -1.934000000     4.572000000    -3.508000000
H    -2.279000000     3.172000000    -4.519000000
C    -0.270000000     3.306000000    -3.545000000
C     0.484000000     4.265000000    -2.886000000
H    -0.050000000     4.998000000    -2.286000000
C     0.340000000     2.157000000    -4.079000000
C     1.708000000     1.892000000    -3.893000000
H     2.178000000     0.992000000    -4.281000000
C     2.467000000     2.881000000    -3.209000000
O     3.800000000     2.568000000    -2.919000000
C     4.057000000     1.902000000    -1.679000000
C     4.951000000     0.776000000    -1.926000000
C     5.016000000     0.019000000    -3.134000000
H     4.406000000     0.283000000    -3.994000000
C     5.797000000     0.257000000    -0.925000000
H     5.896000000     0.758000000     0.034000000
O     4.475000000     2.858000000    -0.668000000
H     3.108000000     1.532000000    -1.264000000
C     1.880000000     4.055000000    -2.625000000
C     2.565000000     4.876000000    -1.631000000
H     2.183000000     5.899000000    -1.636000000
H     3.620000000     4.942000000    -1.905000000
C     2.551000000     4.285000000    -0.282000000
C     3.504000000     3.342000000     0.169000000
C     3.393000000     2.790000000     1.442000000
H     4.161000000     2.102000000     1.786000000
C     2.331000000     3.157000000     2.223000000
O     2.176000000     2.525000000     3.497000000
C     1.030000000     1.647000000     3.624000000
H     0.541000000     1.427000000     2.664000000
C     1.366000000     0.261000000     4.142000000
C     0.475000000    -0.440000000     4.935000000
H    -0.405000000     0.084000000     5.299000000
C     2.474000000    -0.393000000     3.622000000
H     3.079000000     0.062000000     2.842000000
C     2.797000000    -1.695000000     3.978000000
O     3.933000000    -2.314000000     3.405000000
C     1.891000000    -2.403000000     4.804000000
H     2.259000000    -3.389000000     5.075000000
C     0.708000000    -1.800000000     5.224000000
O    -0.227000000    -2.461000000     6.021000000
C    -1.566000000    -2.166000000     6.257000000
C    -2.498000000    -2.861000000     5.542000000
H    -2.242000000    -3.534000000     4.728000000
C    -1.949000000    -1.196000000     7.196000000
H    -1.192000000    -0.619000000     7.720000000
C    -3.333000000    -0.875000000     7.386000000
H    -3.566000000     0.051000000     7.905000000
C    -4.250000000    -1.640000000     6.723000000
H    -5.279000000    -1.292000000     6.752000000
C    -3.878000000    -2.570000000     5.790000000
O    -4.859000000    -3.087000000     4.949000000
C    -4.976000000    -2.713000000     3.611000000
C    -5.440000000    -3.609000000     2.701000000
H    -5.978000000    -4.459000000     3.114000000
C    -5.422000000    -3.307000000     1.364000000
O    -5.766000000    -4.321000000     0.578000000
C    -5.584000000    -4.292000000    -0.849000000
C    -4.365000000    -4.344000000    -1.494000000
H    -3.510000000    -4.612000000    -0.878000000
C    -6.726000000    -4.002000000    -1.606000000
H    -7.733000000    -4.063000000    -1.201000000
C    -6.619000000    -3.708000000    -2.918000000
H    -7.557000000    -3.428000000    -3.390000000
C    -5.410000000    -3.818000000    -3.615000000
H    -5.415000000    -3.724000000    -4.698000000
C    -4.288000000    -4.091000000    -2.886000000
O    -3.094000000    -4.329000000    -3.453000000
C    -2.099000000    -3.459000000    -3.739000000
C    -0.879000000    -3.985000000    -4.082000000
H    -0.686000000    -5.048000000    -3.964000000
C     0.130000000    -3.166000000    -4.582000000
O     1.291000000    -3.752000000    -4.958000000
C     2.387000000    -3.117000000    -5.469000000
C     3.476000000    -2.917000000    -4.689000000
H     3.628000000    -3.325000000    -3.694000000
C     2.245000000    -2.483000000    -6.683000000
H     1.379000000    -2.805000000    -7.255000000
C     3.261000000    -1.786000000    -7.251000000
H     3.208000000    -1.530000000    -8.306000000
C     4.381000000    -1.581000000    -6.471000000
H     5.214000000    -1.060000000    -6.938000000
C     4.483000000    -2.145000000    -5.197000000
O     5.625000000    -1.967000000    -4.483000000
C     5.728000000    -1.157000000    -3.295000000
C     6.548000000    -1.611000000    -2.258000000
H     7.018000000    -2.580000000    -2.401000000
C     6.545000000    -0.906000000    -1.017000000
O     7.250000000    -1.396000000     0.039000000
C     6.782000000    -1.259000000     1.303000000
C     7.537000000    -0.510000000     2.224000000
H     8.534000000    -0.176000000     1.948000000
C     7.099000000    -0.249000000     3.574000000
H     7.688000000     0.308000000     4.298000000
C     5.839000000    -0.861000000     3.970000000
H     5.491000000    -0.810000000     4.998000000
C     5.086000000    -1.591000000     3.024000000
C     5.465000000    -1.703000000     1.670000000
H     4.908000000    -2.310000000     0.961000000
C     1.422000000    -1.091000000    -0.189000000
H     2.095000000    -1.127000000    -1.041000000
C     0.496000000     0.001000000    -0.078000000
H     0.566000000     0.888000000    -0.703000000
C    -0.445000000    -0.005000000     0.975000000
H    -1.146000000     0.838000000     1.093000000
C    -0.535000000    -1.073000000     1.834000000
H    -1.324000000    -1.115000000     2.581000000
C     0.341000000    -2.133000000     1.716000000
H     0.148000000    -3.018000000     2.317000000
C     1.289000000    -2.183000000     0.657000000
C     2.057000000    -3.498000000     0.356000000
O     1.718000000    -4.557000000     0.920000000
O     2.834000000    -3.547000000    -0.552000000
O     3.297000000    -6.090000000    -3.452000000
H     2.463000000    -6.154000000    -2.986000000
H     3.922000000    -5.803000000    -2.785000000
O     4.932000000    -4.824000000    -1.838000000
H     4.280000000    -4.165000000    -1.601000000
H     5.436000000    -4.963000000    -1.036000000
O     5.867000000    -6.916000000     3.367000000
H     6.591000000    -6.295000000     3.442000000
H     5.092000000    -6.367000000     3.245000000
O    -0.012000000    -5.282000000     4.458000000
H     0.081000000    -5.817000000     3.669000000
H     0.454000000    -4.471000000     4.253000000
O     1.296000000    -8.278000000    -2.055000000
H     1.284000000    -7.625000000    -1.355000000
H     2.209000000    -8.559000000    -2.105000000
O    -1.215000000    -5.930000000    -0.215000000
H    -0.773000000    -6.405000000     0.489000000
H    -0.914000000    -5.026000000    -0.119000000
O     5.403000000    -3.884000000     5.245000000
H     5.569000000    -2.963000000     5.045000000
H     4.839000000    -3.864000000     6.018000000
O    -2.108000000    -7.037000000    -2.613000000
H    -1.577000000    -7.438000000    -3.301000000
H    -1.470000000    -6.685000000    -1.992000000
O    -2.054000000    -7.856000000     2.485000000
H    -2.424000000    -7.285000000     3.158000000
H    -1.338000000    -7.345000000     2.105000000
O     0.506000000    -6.625000000     2.212000000
H     1.027000000    -7.375000000     2.498000000
H     1.121000000    -6.078000000     1.724000000
O     3.895000000    -9.139000000    -1.368000000
H     4.220000000    -8.242000000    -1.286000000
H     4.125000000    -9.554000000    -0.536000000
O     3.188000000    -6.583000000    -0.092000000
H     2.749000000    -5.766000000     0.144000000
H     4.117000000    -6.407000000     0.057000000
O     5.986000000    -5.865000000     0.526000000
H     6.259000000    -6.777000000     0.632000000
H     6.672000000    -5.358000000     0.959000000
O     7.497000000    -5.186000000    -3.687000000
H     6.757000000    -4.810000000    -3.211000000
H     7.111000000    -5.546000000    -4.485000000
O     0.261000000    -7.881000000    -4.468000000
H     0.432000000    -8.151000000    -3.566000000
H     1.124000000    -7.669000000    -4.823000000
O     2.675000000    -6.487000000    -6.025000000
H     2.842000000    -5.719000000    -6.571000000
H     2.960000000    -6.225000000    -5.150000000
O     1.120000000    -5.385000000    -2.038000000
H     1.452000000    -4.947000000    -1.254000000
H     0.817000000    -4.672000000    -2.601000000
O     2.878000000    -8.125000000     3.023000000
H     3.450000000    -8.619000000     2.436000000
H     3.241000000    -7.239000000     3.021000000
O     3.385000000    -5.270000000     2.948000000
H     3.011000000    -4.994000000     2.111000000
H     3.780000000    -4.476000000     3.308000000
