215
-1443.08588
C    -4.520000000    -1.451000000     1.779000000
H    -4.906000000    -1.067000000     0.839000000
C    -3.675000000    -0.633000000     2.523000000
C    -2.998000000    -1.220000000     3.640000000
H    -2.149000000    -0.735000000     4.113000000
C    -3.414000000     0.859000000     2.125000000
O    -4.592000000     1.449000000     1.499000000
H    -2.670000000     0.818000000     1.316000000
O    -3.060000000     1.670000000     3.226000000
C    -2.027000000     2.476000000     3.094000000
C    -0.924000000     2.207000000     3.834000000
H    -1.006000000     1.469000000     4.628000000
C     0.237000000     2.857000000     3.598000000
O     1.423000000     2.448000000     4.194000000
C     0.251000000     3.957000000     2.762000000
C     1.535000000     4.697000000     2.389000000
H     1.391000000     5.763000000     2.198000000
C     2.314000000     4.017000000     1.326000000
C     2.157000000     4.488000000     0.071000000
H     1.333000000     5.169000000    -0.126000000
H     2.200000000     4.649000000     3.253000000
C    -0.880000000     4.357000000     2.045000000
H    -0.949000000     5.248000000     1.426000000
C    -2.084000000     3.592000000     2.205000000
C    -3.360000000     4.087000000     1.591000000
H    -3.221000000     5.144000000     1.354000000
H    -4.193000000     4.063000000     2.296000000
C    -3.709000000     3.412000000     0.317000000
C    -3.317000000     3.970000000    -0.930000000
H    -2.721000000     4.878000000    -0.975000000
C    -4.284000000     2.151000000     0.317000000
C    -4.353000000     1.380000000    -0.868000000
H    -4.648000000     0.336000000    -0.930000000
C    -3.929000000     1.941000000    -2.064000000
O    -3.869000000     1.122000000    -3.102000000
C    -2.587000000     0.485000000    -3.473000000
C    -2.824000000    -0.958000000    -3.921000000
C    -1.848000000    -1.588000000    -4.732000000
H    -1.059000000    -1.020000000    -5.220000000
C    -3.953000000    -1.686000000    -3.523000000
H    -4.765000000    -1.311000000    -2.905000000
O    -1.891000000     1.165000000    -4.498000000
H    -1.946000000     0.520000000    -2.580000000
C    -3.331000000     3.206000000    -2.126000000
C    -2.580000000     3.680000000    -3.339000000
H    -2.711000000     4.754000000    -3.483000000
H    -3.121000000     3.340000000    -4.224000000
C    -1.111000000     3.215000000    -3.490000000
C    -0.061000000     3.863000000    -2.892000000
H    -0.323000000     4.831000000    -2.474000000
C    -0.856000000     2.055000000    -4.172000000
C     0.414000000     1.578000000    -4.238000000
H     0.562000000     0.598000000    -4.684000000
C     1.463000000     2.263000000    -3.592000000
O     2.749000000     1.686000000    -3.556000000
C     3.217000000     1.058000000    -2.302000000
C     3.842000000    -0.318000000    -2.444000000
C     3.695000000    -1.148000000    -3.676000000
H     3.076000000    -0.725000000    -4.464000000
C     4.481000000    -0.921000000    -1.384000000
H     4.531000000    -0.322000000    -0.478000000
O     4.150000000     1.977000000    -1.706000000
H     2.345000000     1.009000000    -1.634000000
C     1.261000000     3.461000000    -2.942000000
C     2.424000000     4.313000000    -2.373000000
H     2.084000000     5.347000000    -2.280000000
H     3.309000000     4.353000000    -3.011000000
C     2.810000000     3.889000000    -1.014000000
C     3.685000000     2.817000000    -0.768000000
C     3.903000000     2.396000000     0.513000000
H     4.584000000     1.552000000     0.592000000
C     3.156000000     2.940000000     1.533000000
O     3.379000000     2.475000000     2.775000000
C     2.301000000     1.648000000     3.276000000
H     1.637000000     1.290000000     2.475000000
C     2.818000000     0.401000000     4.005000000
C     2.041000000    -0.299000000     4.887000000
H     1.054000000     0.119000000     5.072000000
C     4.131000000    -0.062000000     3.790000000
H     4.739000000     0.332000000     2.980000000
C     4.603000000    -1.119000000     4.518000000
O     5.914000000    -1.537000000     4.307000000
C     3.871000000    -1.764000000     5.504000000
H     4.328000000    -2.603000000     6.024000000
C     2.529000000    -1.466000000     5.646000000
O     1.793000000    -2.201000000     6.502000000
C     0.437000000    -1.951000000     6.583000000
C    -0.528000000    -2.599000000     5.830000000
H    -0.203000000    -3.397000000     5.168000000
C     0.048000000    -1.031000000     7.523000000
H     0.849000000    -0.634000000     8.142000000
C    -1.296000000    -0.715000000     7.673000000
H    -1.534000000     0.020000000     8.438000000
C    -2.228000000    -1.377000000     6.932000000
H    -3.282000000    -1.274000000     7.179000000
C    -1.852000000    -2.266000000     5.937000000
O    -2.830000000    -3.001000000     5.266000000
C    -3.442000000    -2.474000000     4.157000000
C    -4.271000000    -3.237000000     3.412000000
H    -4.565000000    -4.232000000     3.734000000
C    -4.782000000    -2.721000000     2.206000000
O    -5.474000000    -3.637000000     1.410000000
C    -5.973000000    -3.373000000     0.113000000
C    -5.293000000    -3.779000000    -1.019000000
H    -4.286000000    -4.164000000    -0.883000000
C    -7.264000000    -2.883000000    -0.036000000
H    -7.817000000    -2.540000000     0.835000000
C    -7.783000000    -2.638000000    -1.277000000
H    -8.757000000    -2.170000000    -1.395000000
C    -6.943000000    -2.872000000    -2.403000000
H    -7.312000000    -2.592000000    -3.386000000
C    -5.752000000    -3.555000000    -2.276000000
O    -5.006000000    -3.885000000    -3.426000000
C    -3.955000000    -3.071000000    -3.806000000
C    -2.984000000    -3.669000000    -4.558000000
H    -3.097000000    -4.722000000    -4.802000000
C    -1.875000000    -2.962000000    -5.040000000
O    -0.803000000    -3.648000000    -5.646000000
C     0.380000000    -3.128000000    -6.004000000
C     1.510000000    -3.378000000    -5.211000000
H     1.392000000    -3.959000000    -4.299000000
C     0.559000000    -2.487000000    -7.242000000
H    -0.273000000    -2.424000000    -7.938000000
C     1.805000000    -2.041000000    -7.673000000
H     1.895000000    -1.589000000    -8.657000000
C     2.920000000    -2.246000000    -6.818000000
H     3.925000000    -1.928000000    -7.084000000
C     2.778000000    -2.967000000    -5.635000000
O     3.800000000    -3.287000000    -4.752000000
C     4.201000000    -2.474000000    -3.728000000
C     4.813000000    -3.049000000    -2.613000000
H     5.207000000    -4.061000000    -2.663000000
C     4.977000000    -2.269000000    -1.472000000
O     5.327000000    -2.859000000    -0.266000000
C     6.169000000    -2.280000000     0.674000000
C     7.347000000    -1.678000000     0.257000000
H     7.670000000    -1.891000000    -0.759000000
C     8.069000000    -1.055000000     1.238000000
H     8.982000000    -0.567000000     0.907000000
C     7.643000000    -1.024000000     2.572000000
H     8.279000000    -0.529000000     3.302000000
C     6.542000000    -1.705000000     3.063000000
C     5.742000000    -2.306000000     2.040000000
H     4.854000000    -2.835000000     2.377000000
C     0.140000000    -2.123000000    -0.911000000
H     0.391000000    -2.704000000    -1.794000000
C     0.640000000    -0.866000000    -0.813000000
H     1.056000000    -0.453000000    -1.728000000
C     0.595000000    -0.147000000     0.356000000
H     1.086000000     0.844000000     0.429000000
C     0.071000000    -0.742000000     1.472000000
H     0.202000000    -0.177000000     2.391000000
C    -0.620000000    -1.956000000     1.403000000
H    -1.173000000    -2.396000000     2.229000000
C    -0.556000000    -2.652000000     0.167000000
C    -1.138000000    -4.047000000     0.063000000
O    -1.693000000    -4.492000000     1.053000000
O    -0.749000000    -4.825000000    -0.817000000
O    -0.795000000    -6.622000000    -2.954000000
H    -1.677000000    -6.513000000    -2.598000000
H    -0.227000000    -6.175000000    -2.326000000
O     2.517000000    -2.851000000     1.279000000
H     2.304000000    -2.225000000     1.972000000
H     2.181000000    -2.447000000     0.479000000
O    -1.697000000    -5.358000000     3.672000000
H    -2.277000000    -4.823000000     4.214000000
H    -1.782000000    -4.987000000     2.793000000
O    -3.579000000    -6.538000000    -2.524000000
H    -4.105000000    -7.306000000    -2.749000000
H    -4.173000000    -5.797000000    -2.647000000
O     3.442000000    -6.097000000     3.029000000
H     2.532000000    -6.152000000     2.737000000
H     3.389000000    -6.115000000     3.984000000
O    -1.464000000    -7.276000000     5.685000000
H    -1.310000000    -7.937000000     5.010000000
H    -1.696000000    -6.486000000     5.197000000
O     2.176000000    -8.248000000    -2.096000000
H     1.796000000    -9.086000000    -2.360000000
H     1.469000000    -7.800000000    -1.631000000
O    -4.153000000    -7.740000000     4.373000000
H    -4.383000000    -7.238000000     3.591000000
H    -4.044000000    -7.079000000     5.058000000
O     0.842000000    -6.795000000     2.837000000
H     0.822000000    -6.731000000     1.882000000
H     0.153000000    -6.199000000     3.131000000
O     0.942000000    -6.585000000     0.084000000
H     0.203000000    -6.036000000    -0.179000000
H     1.702000000    -6.007000000     0.025000000
O    -2.757000000    -6.867000000     0.345000000
H    -2.404000000    -6.016000000     0.603000000
H    -2.828000000    -6.818000000    -0.609000000
O    -6.274000000    -7.659000000    -0.549000000
H    -5.933000000    -7.169000000    -1.297000000
H    -7.125000000    -7.985000000    -0.843000000
O    -0.787000000    -9.096000000     3.745000000
H    -0.261000000    -8.393000000     3.364000000
H    -0.243000000    -9.879000000     3.653000000
O    -5.116000000    -6.548000000     1.865000000
H    -5.642000000    -6.689000000     1.077000000
H    -4.212000000    -6.546000000     1.552000000
O     0.160000000    -6.462000000    -5.753000000
H     0.084000000    -6.983000000    -4.954000000
H    -0.656000000    -5.963000000    -5.793000000
O    -0.927000000    -8.878000000    -0.294000000
H    -0.214000000    -8.596000000     0.280000000
H    -1.722000000    -8.576000000     0.144000000
O    -1.537000000    -9.720000000    -3.474000000
H    -1.435000000    -8.915000000    -2.967000000
H    -2.163000000    -9.492000000    -4.162000000
O     4.892000000    -6.325000000    -1.745000000
H     4.077000000    -6.326000000    -1.243000000
H     5.581000000    -6.254000000    -1.084000000
O     3.442000000    -5.270000000     0.252000000
H     3.091000000    -4.397000000     0.429000000
H     3.977000000    -5.473000000     1.019000000
