215
-1443.65639
C    -4.883000000    -1.132000000     1.224000000
H    -5.114000000    -0.885000000     0.191000000
C    -4.188000000    -0.307000000     2.068000000
C    -3.863000000    -0.796000000     3.347000000
H    -3.121000000    -0.285000000     3.956000000
C    -3.685000000     1.036000000     1.624000000
O    -4.544000000     1.607000000     0.647000000
H    -2.725000000     0.944000000     1.095000000
O    -3.664000000     1.979000000     2.720000000
C    -2.612000000     2.855000000     2.759000000
C    -1.646000000     2.518000000     3.674000000
H    -1.769000000     1.695000000     4.374000000
C    -0.439000000     3.175000000     3.542000000
O     0.612000000     2.525000000     4.229000000
C    -0.222000000     4.239000000     2.663000000
C     1.163000000     4.943000000     2.665000000
H     1.190000000     5.999000000     2.391000000
C     2.144000000     4.227000000     1.690000000
C     2.001000000     4.451000000     0.311000000
H     1.238000000     5.161000000     0.000000000
H     1.567000000     5.004000000     3.677000000
C    -1.200000000     4.630000000     1.746000000
H    -1.087000000     5.373000000     0.960000000
C    -2.444000000     3.920000000     1.801000000
C    -3.503000000     4.369000000     0.826000000
H    -3.418000000     5.417000000     0.530000000
H    -4.439000000     4.243000000     1.372000000
C    -3.568000000     3.481000000    -0.411000000
C    -2.750000000     3.923000000    -1.438000000
H    -2.455000000     4.968000000    -1.488000000
C    -4.104000000     2.230000000    -0.509000000
C    -4.111000000     1.413000000    -1.641000000
H    -4.540000000     0.414000000    -1.640000000
C    -3.383000000     1.901000000    -2.692000000
O    -3.137000000     1.064000000    -3.799000000
C    -1.892000000     0.340000000    -3.784000000
C    -2.200000000    -1.028000000    -4.317000000
C    -1.339000000    -1.621000000    -5.285000000
H    -0.441000000    -1.090000000    -5.591000000
C    -3.288000000    -1.729000000    -3.826000000
H    -3.998000000    -1.207000000    -3.190000000
O    -1.029000000     0.947000000    -4.703000000
H    -1.438000000     0.383000000    -2.783000000
C    -2.700000000     3.125000000    -2.618000000
C    -1.902000000     3.647000000    -3.810000000
H    -1.862000000     4.734000000    -3.709000000
H    -2.314000000     3.483000000    -4.808000000
C    -0.447000000     3.060000000    -3.721000000
C     0.472000000     3.805000000    -2.979000000
H     0.250000000     4.746000000    -2.483000000
C    -0.112000000     1.822000000    -4.205000000
C     1.133000000     1.336000000    -3.967000000
H     1.303000000     0.329000000    -4.339000000
C     2.109000000     2.098000000    -3.364000000
O     3.355000000     1.526000000    -3.126000000
C     3.540000000     1.107000000    -1.736000000
C     4.110000000    -0.313000000    -1.721000000
C     3.462000000    -1.342000000    -2.473000000
H     2.821000000    -0.992000000    -3.278000000
C     5.217000000    -0.727000000    -0.924000000
H     5.874000000    -0.034000000    -0.404000000
O     4.341000000     1.966000000    -0.916000000
H     2.630000000     0.863000000    -1.169000000
C     1.747000000     3.306000000    -2.765000000
C     2.728000000     4.175000000    -2.033000000
H     2.473000000     5.231000000    -2.143000000
H     3.704000000     4.022000000    -2.498000000
C     2.814000000     3.813000000    -0.581000000
C     3.715000000     2.828000000    -0.109000000
C     3.809000000     2.521000000     1.265000000
H     4.573000000     1.882000000     1.699000000
C     2.984000000     3.200000000     2.168000000
O     2.771000000     2.792000000     3.472000000
C     1.728000000     1.822000000     3.582000000
H     1.279000000     1.590000000     2.605000000
C     2.152000000     0.506000000     4.227000000
C     1.151000000    -0.489000000     4.574000000
H     0.099000000    -0.281000000     4.750000000
C     3.427000000     0.070000000     4.146000000
H     4.167000000     0.830000000     3.910000000
C     3.858000000    -1.212000000     4.506000000
O     5.208000000    -1.553000000     4.640000000
C     2.887000000    -2.194000000     4.695000000
H     3.264000000    -3.186000000     4.928000000
C     1.553000000    -1.804000000     4.799000000
O     0.712000000    -2.799000000     5.091000000
C    -0.467000000    -2.657000000     5.706000000
C    -1.672000000    -2.740000000     5.014000000
H    -1.602000000    -2.870000000     3.937000000
C    -0.428000000    -2.579000000     7.076000000
H     0.469000000    -2.388000000     7.659000000
C    -1.641000000    -2.339000000     7.737000000
H    -1.609000000    -2.196000000     8.814000000
C    -2.844000000    -2.434000000     7.046000000
H    -3.749000000    -2.397000000     7.648000000
C    -2.880000000    -2.642000000     5.678000000
O    -4.115000000    -2.572000000     4.982000000
C    -4.306000000    -2.096000000     3.717000000
C    -5.004000000    -2.869000000     2.804000000
H    -5.515000000    -3.804000000     3.016000000
C    -5.346000000    -2.374000000     1.584000000
O    -6.178000000    -3.207000000     0.887000000
C    -6.376000000    -3.065000000    -0.446000000
C    -5.430000000    -3.498000000    -1.325000000
H    -4.550000000    -3.975000000    -0.901000000
C    -7.449000000    -2.340000000    -0.955000000
H    -8.216000000    -1.810000000    -0.397000000
C    -7.586000000    -2.213000000    -2.367000000
H    -8.379000000    -1.680000000    -2.886000000
C    -6.568000000    -2.702000000    -3.219000000
H    -6.754000000    -2.606000000    -4.285000000
C    -5.498000000    -3.369000000    -2.698000000
O    -4.423000000    -3.862000000    -3.534000000
C    -3.397000000    -3.129000000    -4.067000000
C    -2.450000000    -3.719000000    -4.976000000
H    -2.621000000    -4.759000000    -5.240000000
C    -1.391000000    -2.976000000    -5.566000000
O    -0.394000000    -3.614000000    -6.188000000
C     1.002000000    -3.456000000    -6.048000000
C     1.585000000    -3.843000000    -4.851000000
H     0.986000000    -4.327000000    -4.084000000
C     1.766000000    -2.729000000    -6.964000000
H     1.297000000    -2.370000000    -7.877000000
C     3.073000000    -2.389000000    -6.662000000
H     3.740000000    -1.892000000    -7.362000000
C     3.652000000    -2.770000000    -5.451000000
H     4.698000000    -2.559000000    -5.242000000
C     2.851000000    -3.403000000    -4.499000000
O     3.330000000    -3.648000000    -3.213000000
C     3.893000000    -2.662000000    -2.439000000
C     4.841000000    -3.049000000    -1.445000000
H     5.168000000    -4.075000000    -1.290000000
C     5.518000000    -2.060000000    -0.738000000
O     6.655000000    -2.371000000    -0.007000000
C     6.838000000    -1.831000000     1.246000000
C     8.000000000    -1.110000000     1.521000000
H     8.844000000    -1.049000000     0.839000000
C     8.216000000    -0.514000000     2.741000000
H     9.210000000    -0.126000000     2.945000000
C     7.238000000    -0.645000000     3.756000000
H     7.347000000    -0.278000000     4.773000000
C     6.064000000    -1.418000000     3.585000000
C     5.886000000    -2.000000000     2.294000000
H     4.955000000    -2.530000000     2.110000000
C    -0.265000000    -1.838000000    -0.790000000
H    -0.051000000    -2.651000000    -1.479000000
C     0.016000000    -0.545000000    -1.182000000
H     0.503000000    -0.419000000    -2.146000000
C    -0.080000000     0.546000000    -0.304000000
H     0.264000000     1.534000000    -0.621000000
C    -0.455000000     0.350000000     1.007000000
H    -0.448000000     1.181000000     1.708000000
C    -0.687000000    -0.952000000     1.471000000
H    -0.839000000    -1.097000000     2.538000000
C    -0.506000000    -2.026000000     0.589000000
C    -0.530000000    -3.470000000     1.065000000
O    -0.067000000    -3.692000000     2.198000000
O    -0.661000000    -4.363000000     0.260000000
O    -0.276000000    -5.501000000    -2.468000000
H    -0.135000000    -6.439000000    -2.337000000
H    -0.696000000    -5.208000000    -1.659000000
O     2.514000000    -3.490000000     1.617000000
H     1.633000000    -3.627000000     1.965000000
H     2.608000000    -2.539000000     1.571000000
O     1.682000000    -5.751000000     3.965000000
H     1.162000000    -6.064000000     4.706000000
H     1.387000000    -4.851000000     3.828000000
O     0.477000000    -5.612000000     6.556000000
H    -0.032000000    -4.820000000     6.383000000
H    -0.011000000    -6.067000000     7.242000000
O     3.699000000    -7.759000000     3.884000000
H     3.578000000    -8.103000000     4.770000000
H     3.157000000    -6.971000000     3.857000000
O    -3.589000000    -9.320000000     1.812000000
H    -2.920000000    -9.503000000     1.152000000
H    -3.513000000    -8.380000000     1.977000000
O    -1.151000000    -7.742000000     4.627000000
H    -1.511000000    -7.869000000     5.505000000
H    -1.624000000    -6.984000000     4.282000000
O     2.399000000    -5.580000000    -0.775000000
H     2.387000000    -4.659000000    -1.036000000
H     1.614000000    -5.688000000    -0.239000000
O    -2.968000000    -5.689000000     0.144000000
H    -3.006000000    -5.974000000    -0.769000000
H    -2.165000000    -5.171000000     0.200000000
O     3.660000000    -8.137000000    -0.488000000
H     3.100000000    -7.409000000    -0.757000000
H     4.520000000    -7.741000000    -0.350000000
O     3.226000000    -4.735000000     6.813000000
H     2.468000000    -5.300000000     6.660000000
H     2.869000000    -3.975000000     7.274000000
O    -5.097000000    -6.244000000     1.486000000
H    -4.377000000    -5.986000000     0.911000000
H    -5.638000000    -6.822000000     0.948000000
O    -0.345000000    -8.029000000    -0.751000000
H    -0.120000000    -7.635000000     0.092000000
H    -1.182000000    -8.466000000    -0.595000000
O     4.012000000    -6.787000000    -3.458000000
H     3.992000000    -7.671000000    -3.092000000
H     3.465000000    -6.270000000    -2.867000000
O    -1.755000000    -5.481000000     3.230000000
H    -2.060000000    -5.447000000     2.323000000
H    -0.963000000    -4.943000000     3.236000000
O     0.414000000    -6.655000000     1.395000000
H     0.168000000    -5.756000000     1.175000000
H     0.495000000    -6.655000000     2.349000000
O    -4.792000000    -5.932000000     4.118000000
H    -4.952000000    -6.094000000     3.189000000
H    -3.994000000    -5.402000000     4.135000000
O     0.253000000    -9.689000000     3.080000000
H     0.650000000   -10.326000000     3.673000000
H     0.362000000    -8.848000000     3.524000000
O     4.713000000    -5.180000000     2.347000000
H     3.879000000    -4.726000000     2.223000000
H     4.531000000    -6.087000000     2.100000000
