215
-1483.96020
C    -5.282000000    -1.405000000     1.386000000
H    -5.395000000    -0.858000000     0.453000000
C    -4.459000000    -0.851000000     2.451000000
C    -4.203000000    -1.678000000     3.528000000
H    -3.594000000    -1.238000000     4.313000000
C    -3.794000000     0.501000000     2.214000000
O    -4.610000000     1.434000000     1.495000000
H    -2.967000000     0.266000000     1.528000000
O    -3.279000000     1.077000000     3.448000000
C    -2.208000000     1.919000000     3.388000000
C    -1.071000000     1.429000000     4.093000000
H    -1.134000000     0.504000000     4.661000000
C     0.134000000     2.143000000     4.152000000
O     1.258000000     1.509000000     4.607000000
C     0.118000000     3.374000000     3.421000000
C     1.472000000     4.150000000     3.418000000
H     1.323000000     5.232000000     3.428000000
C     2.407000000     3.699000000     2.260000000
C     2.439000000     4.373000000     1.089000000
H     1.773000000     5.230000000     1.021000000
H     2.063000000     4.017000000     4.326000000
C    -1.026000000     3.982000000     2.849000000
H    -1.015000000     4.888000000     2.249000000
C    -2.192000000     3.205000000     2.869000000
C    -3.410000000     3.834000000     2.167000000
H    -3.420000000     4.924000000     2.226000000
H    -4.295000000     3.567000000     2.749000000
C    -3.386000000     3.339000000     0.722000000
C    -2.755000000     4.049000000    -0.256000000
H    -2.363000000     5.040000000    -0.039000000
C    -4.082000000     2.123000000     0.438000000
C    -4.134000000     1.692000000    -0.916000000
H    -4.656000000     0.833000000    -1.331000000
C    -3.375000000     2.362000000    -1.841000000
O    -3.333000000     1.826000000    -3.153000000
C    -2.071000000     1.167000000    -3.416000000
C    -2.181000000    -0.210000000    -3.992000000
C    -1.205000000    -0.738000000    -4.863000000
H    -0.466000000    -0.044000000    -5.255000000
C    -3.102000000    -1.078000000    -3.389000000
H    -3.666000000    -0.742000000    -2.522000000
O    -1.232000000     1.947000000    -4.304000000
H    -1.535000000     1.004000000    -2.470000000
C    -2.688000000     3.561000000    -1.566000000
C    -1.929000000     4.289000000    -2.618000000
H    -1.839000000     5.335000000    -2.320000000
H    -2.478000000     4.128000000    -3.547000000
C    -0.513000000     3.789000000    -2.927000000
C     0.535000000     4.356000000    -2.184000000
H     0.273000000     5.161000000    -1.503000000
C    -0.222000000     2.630000000    -3.664000000
C     1.113000000     2.193000000    -3.757000000
H     1.429000000     1.277000000    -4.249000000
C     2.133000000     2.866000000    -3.061000000
O     3.346000000     2.305000000    -3.058000000
C     3.692000000     1.465000000    -1.993000000
C     4.364000000     0.164000000    -2.403000000
C     4.130000000    -0.361000000    -3.625000000
H     3.552000000     0.184000000    -4.367000000
C     5.076000000    -0.609000000    -1.455000000
H     5.216000000    -0.317000000    -0.417000000
O     4.519000000     2.191000000    -1.002000000
H     2.747000000     1.203000000    -1.494000000
C     1.850000000     3.987000000    -2.275000000
C     2.871000000     4.594000000    -1.350000000
H     2.450000000     5.580000000    -1.142000000
H     3.836000000     4.683000000    -1.852000000
C     3.061000000     3.885000000    -0.017000000
C     3.884000000     2.762000000     0.106000000
C     4.089000000     2.189000000     1.356000000
H     4.757000000     1.334000000     1.435000000
C     3.303000000     2.612000000     2.397000000
O     3.293000000     1.725000000     3.468000000
C     2.072000000     0.917000000     3.569000000
H     1.631000000     0.929000000     2.561000000
C     2.388000000    -0.522000000     3.960000000
C     1.274000000    -1.351000000     4.136000000
H     0.270000000    -0.939000000     4.077000000
C     3.740000000    -1.005000000     3.877000000
H     4.509000000    -0.364000000     3.453000000
C     3.876000000    -2.418000000     3.931000000
O     5.097000000    -3.009000000     3.597000000
C     2.783000000    -3.285000000     4.297000000
H     2.931000000    -4.357000000     4.393000000
C     1.499000000    -2.683000000     4.422000000
O     0.486000000    -3.598000000     4.687000000
C    -0.781000000    -3.250000000     5.126000000
C    -1.973000000    -3.840000000     4.679000000
H    -1.982000000    -4.473000000     3.796000000
C    -0.820000000    -2.442000000     6.251000000
H     0.081000000    -1.928000000     6.575000000
C    -1.988000000    -2.165000000     6.909000000
H    -1.997000000    -1.696000000     7.890000000
C    -3.205000000    -2.765000000     6.503000000
H    -4.135000000    -2.483000000     6.989000000
C    -3.162000000    -3.470000000     5.302000000
O    -4.445000000    -3.703000000     4.772000000
C    -4.879000000    -2.900000000     3.723000000
C    -5.758000000    -3.376000000     2.793000000
H    -6.212000000    -4.351000000     2.945000000
C    -5.960000000    -2.606000000     1.582000000
O    -6.783000000    -3.111000000     0.669000000
C    -6.540000000    -3.002000000    -0.663000000
C    -5.349000000    -3.194000000    -1.244000000
H    -4.477000000    -3.540000000    -0.696000000
C    -7.660000000    -2.588000000    -1.386000000
H    -8.594000000    -2.412000000    -0.859000000
C    -7.538000000    -2.354000000    -2.717000000
H    -8.385000000    -2.076000000    -3.339000000
C    -6.335000000    -2.482000000    -3.324000000
H    -6.198000000    -2.332000000    -4.391000000
C    -5.219000000    -2.887000000    -2.583000000
O    -4.064000000    -3.196000000    -3.152000000
C    -3.185000000    -2.396000000    -3.767000000
C    -2.298000000    -2.885000000    -4.689000000
H    -2.321000000    -3.924000000    -5.008000000
C    -1.321000000    -2.086000000    -5.276000000
O    -0.320000000    -2.617000000    -6.098000000
C     0.818000000    -1.975000000    -6.360000000
C     1.886000000    -2.427000000    -5.570000000
H     1.824000000    -3.210000000    -4.819000000
C     0.962000000    -1.061000000    -7.376000000
H     0.069000000    -0.813000000    -7.944000000
C     2.229000000    -0.477000000    -7.643000000
H     2.435000000     0.194000000    -8.473000000
C     3.330000000    -0.947000000    -6.919000000
H     4.333000000    -0.564000000    -7.087000000
C     3.138000000    -1.893000000    -5.862000000
O     4.274000000    -2.216000000    -5.163000000
C     4.508000000    -1.655000000    -3.907000000
C     5.297000000    -2.396000000    -3.047000000
H     5.572000000    -3.419000000    -3.292000000
C     5.591000000    -1.850000000    -1.786000000
O     6.398000000    -2.655000000    -0.975000000
C     6.676000000    -2.441000000     0.379000000
C     7.763000000    -1.601000000     0.784000000
H     8.373000000    -1.249000000    -0.044000000
C     8.052000000    -1.347000000     2.125000000
H     8.868000000    -0.679000000     2.390000000
C     7.064000000    -1.749000000     3.046000000
H     7.117000000    -1.384000000     4.068000000
C     6.022000000    -2.533000000     2.667000000
C     5.823000000    -2.972000000     1.339000000
H     4.894000000    -3.449000000     1.037000000
C    -0.040000000    -1.890000000    -1.493000000
H     0.185000000    -2.523000000    -2.348000000
C     0.567000000    -0.640000000    -1.499000000
H     1.141000000    -0.414000000    -2.394000000
C     0.471000000     0.218000000    -0.426000000
H     1.017000000     1.133000000    -0.454000000
C    -0.388000000    -0.128000000     0.622000000
H    -0.640000000     0.624000000     1.365000000
C    -1.079000000    -1.371000000     0.603000000
H    -1.831000000    -1.633000000     1.343000000
C    -0.954000000    -2.266000000    -0.493000000
C    -1.553000000    -3.669000000    -0.476000000
O    -2.002000000    -4.070000000     0.601000000
O    -1.607000000    -4.360000000    -1.462000000
O     2.307000000    -6.374000000     0.938000000
H     1.723000000    -5.802000000     1.436000000
H     1.909000000    -6.425000000     0.069000000
O    -0.901000000    -6.113000000    -3.424000000
H    -1.409000000    -5.969000000    -4.223000000
H    -1.332000000    -5.568000000    -2.765000000
O     2.617000000    -2.371000000     0.422000000
H     2.020000000    -1.727000000     0.041000000
H     2.042000000    -3.044000000     0.786000000
O    -3.990000000    -5.973000000     1.143000000
H    -4.560000000    -5.964000000     0.374000000
H    -3.342000000    -5.291000000     0.969000000
O    -3.656000000    -6.075000000    -4.650000000
H    -4.064000000    -6.821000000    -5.089000000
H    -4.237000000    -5.338000000    -4.841000000
O    -3.817000000    -6.448000000     4.347000000
H    -2.972000000    -6.602000000     3.924000000
H    -3.928000000    -5.497000000     4.322000000
O     0.774000000    -7.491000000    -1.568000000
H     0.417000000    -7.162000000    -2.393000000
H     1.328000000    -8.228000000    -1.824000000
O    -6.166000000    -7.108000000     2.784000000
H    -5.320000000    -6.750000000     2.517000000
H    -6.253000000    -6.856000000     3.703000000
O     0.413000000    -4.199000000     1.930000000
H     0.289000000    -3.879000000     2.824000000
H    -0.474000000    -4.310000000     1.590000000
O    -1.299000000    -6.747000000     0.327000000
H    -1.499000000    -5.814000000     0.405000000
H    -0.729000000    -6.806000000    -0.440000000
O    -3.617000000    -6.393000000    -1.935000000
H    -2.964000000    -5.725000000    -1.724000000
H    -3.659000000    -6.393000000    -2.891000000
O     1.503000000    -6.447000000     4.319000000
H     0.977000000    -6.237000000     5.092000000
H     0.860000000    -6.672000000     3.647000000
O     1.639000000    -6.995000000    -5.445000000
H     1.481000000    -6.332000000    -4.773000000
H     0.952000000    -6.846000000    -6.094000000
O    -1.409000000    -7.479000000     3.205000000
H    -1.617000000    -7.090000000     2.355000000
H    -0.953000000    -8.293000000     2.991000000
O    -6.244000000    -7.398000000    -1.494000000
H    -6.085000000    -8.342000000    -1.501000000
H    -5.421000000    -7.014000000    -1.796000000
O     1.902000000    -5.110000000    -3.273000000
H     2.551000000    -4.766000000    -2.659000000
H     1.092000000    -5.153000000    -2.765000000
O    -3.186000000    -8.968000000     1.145000000
H    -2.999000000    -8.033000000     1.235000000
H    -2.366000000    -9.347000000     0.830000000
O    -2.691000000    -9.258000000    -1.911000000
H    -2.837000000    -8.403000000    -1.508000000
H    -3.512000000    -9.453000000    -2.364000000
O     3.976000000    -4.654000000    -1.601000000
H     4.928000000    -4.735000000    -1.535000000
H     3.698000000    -4.374000000    -0.729000000
