215
-1438.35689
C    -5.222000000    -1.608000000     0.715000000
H    -5.669000000    -1.086000000    -0.128000000
C    -4.511000000    -0.926000000     1.660000000
C    -3.727000000    -1.589000000     2.585000000
H    -3.082000000    -1.023000000     3.253000000
C    -4.025000000     0.516000000     1.386000000
O    -4.829000000     1.144000000     0.382000000
H    -3.024000000     0.461000000     0.933000000
O    -3.973000000     1.327000000     2.603000000
C    -2.983000000     2.225000000     2.848000000
C    -2.031000000     1.863000000     3.752000000
H    -2.104000000     0.963000000     4.356000000
C    -0.906000000     2.657000000     3.850000000
O     0.064000000     1.987000000     4.560000000
C    -0.787000000     3.825000000     3.174000000
C     0.447000000     4.673000000     3.364000000
H     0.193000000     5.703000000     3.109000000
C     1.504000000     4.140000000     2.386000000
C     1.601000000     4.686000000     1.141000000
H     1.069000000     5.569000000     0.798000000
H     0.848000000     4.659000000     4.380000000
C    -1.734000000     4.237000000     2.219000000
H    -1.700000000     5.157000000     1.641000000
C    -2.877000000     3.401000000     2.095000000
C    -3.942000000     3.758000000     1.040000000
H    -3.849000000     4.838000000     0.903000000
H    -4.960000000     3.529000000     1.360000000
C    -3.671000000     3.155000000    -0.305000000
C    -3.222000000     3.951000000    -1.327000000
H    -2.922000000     4.967000000    -1.081000000
C    -4.152000000     1.870000000    -0.597000000
C    -3.885000000     1.289000000    -1.838000000
H    -4.172000000     0.274000000    -2.101000000
C    -3.198000000     2.028000000    -2.758000000
O    -2.722000000     1.352000000    -3.848000000
C    -1.363000000     1.064000000    -3.920000000
C    -1.167000000    -0.335000000    -4.419000000
C    -0.229000000    -0.675000000    -5.439000000
H     0.411000000     0.042000000    -5.947000000
C    -1.850000000    -1.415000000    -3.737000000
H    -2.668000000    -1.181000000    -3.061000000
O    -0.627000000     2.035000000    -4.747000000
H    -0.890000000     1.160000000    -2.932000000
C    -2.869000000     3.382000000    -2.552000000
C    -1.879000000     4.218000000    -3.354000000
H    -1.877000000     5.255000000    -3.011000000
H    -2.205000000     4.196000000    -4.396000000
C    -0.433000000     3.834000000    -3.271000000
C     0.351000000     4.460000000    -2.358000000
H    -0.085000000     5.194000000    -1.686000000
C     0.126000000     2.856000000    -4.051000000
C     1.487000000     2.522000000    -3.938000000
H     1.791000000     1.622000000    -4.467000000
C     2.261000000     3.178000000    -3.005000000
O     3.486000000     2.605000000    -2.647000000
C     3.489000000     1.774000000    -1.449000000
C     4.042000000     0.373000000    -1.647000000
C     4.263000000    -0.124000000    -2.910000000
H     4.052000000     0.528000000    -3.754000000
C     4.084000000    -0.490000000    -0.575000000
H     3.823000000    -0.190000000     0.437000000
O     4.131000000     2.495000000    -0.406000000
H     2.448000000     1.501000000    -1.222000000
C     1.730000000     4.216000000    -2.248000000
C     2.553000000     4.885000000    -1.177000000
H     2.186000000     5.905000000    -1.049000000
H     3.577000000     5.049000000    -1.517000000
C     2.457000000     4.163000000     0.158000000
C     3.295000000     3.132000000     0.495000000
C     3.205000000     2.589000000     1.801000000
H     3.791000000     1.692000000     1.984000000
C     2.344000000     3.094000000     2.720000000
O     2.262000000     2.383000000     3.842000000
C     1.169000000     1.416000000     3.906000000
H     0.941000000     1.189000000     2.854000000
C     1.491000000     0.096000000     4.563000000
C     0.574000000    -0.456000000     5.400000000
H    -0.432000000    -0.071000000     5.544000000
C     2.734000000    -0.564000000     4.490000000
H     3.462000000    -0.083000000     3.842000000
C     3.051000000    -1.708000000     5.229000000
O     4.179000000    -2.330000000     4.994000000
C     2.148000000    -2.184000000     6.134000000
H     2.320000000    -2.990000000     6.843000000
C     0.948000000    -1.558000000     6.234000000
O     0.105000000    -2.210000000     7.114000000
C    -1.246000000    -2.380000000     6.705000000
C    -1.644000000    -2.855000000     5.486000000
H    -0.925000000    -3.112000000     4.712000000
C    -2.214000000    -1.818000000     7.561000000
H    -1.928000000    -1.338000000     8.493000000
C    -3.572000000    -1.883000000     7.192000000
H    -4.279000000    -1.328000000     7.803000000
C    -4.002000000    -2.485000000     5.995000000
H    -5.052000000    -2.506000000     5.712000000
C    -3.018000000    -3.005000000     5.136000000
O    -3.319000000    -3.618000000     3.949000000
C    -3.846000000    -2.949000000     2.794000000
C    -4.634000000    -3.670000000     1.930000000
H    -4.643000000    -4.736000000     2.140000000
C    -5.345000000    -3.022000000     0.896000000
O    -5.845000000    -3.784000000    -0.184000000
C    -5.405000000    -3.690000000    -1.483000000
C    -4.008000000    -3.605000000    -1.723000000
H    -3.271000000    -3.538000000    -0.927000000
C    -6.261000000    -4.127000000    -2.503000000
H    -7.289000000    -4.366000000    -2.240000000
C    -5.747000000    -4.272000000    -3.820000000
H    -6.322000000    -4.547000000    -4.700000000
C    -4.369000000    -4.113000000    -4.043000000
H    -4.070000000    -4.293000000    -5.073000000
C    -3.511000000    -3.805000000    -3.013000000
O    -2.205000000    -3.703000000    -3.240000000
C    -1.550000000    -2.760000000    -3.977000000
C    -0.554000000    -3.014000000    -4.981000000
H    -0.285000000    -4.037000000    -5.231000000
C     0.031000000    -1.980000000    -5.664000000
O     0.826000000    -2.249000000    -6.687000000
C     2.205000000    -2.466000000    -6.532000000
C     2.887000000    -2.224000000    -5.350000000
H     2.368000000    -1.900000000    -4.452000000
C     2.880000000    -2.818000000    -7.695000000
H     2.360000000    -3.084000000    -8.612000000
C     4.261000000    -2.918000000    -7.696000000
H     4.699000000    -3.348000000    -8.593000000
C     4.921000000    -2.520000000    -6.579000000
H     6.000000000    -2.509000000    -6.703000000
C     4.268000000    -2.187000000    -5.419000000
O     5.020000000    -2.015000000    -4.292000000
C     4.663000000    -1.473000000    -3.069000000
C     4.816000000    -2.260000000    -1.983000000
H     5.115000000    -3.300000000    -2.094000000
C     4.543000000    -1.770000000    -0.718000000
O     4.602000000    -2.605000000     0.362000000
C     5.215000000    -2.234000000     1.530000000
C     6.400000000    -1.558000000     1.609000000
H     6.980000000    -1.113000000     0.805000000
C     6.938000000    -1.196000000     2.871000000
H     7.897000000    -0.685000000     2.829000000
C     6.251000000    -1.581000000     4.072000000
H     6.748000000    -1.270000000     4.987000000
C     5.009000000    -2.136000000     3.978000000
C     4.656000000    -2.635000000     2.752000000
H     3.695000000    -3.141000000     2.715000000
C     1.187000000    -2.058000000    -0.427000000
H     1.824000000    -2.656000000    -1.073000000
C     0.507000000    -0.887000000    -0.943000000
H     0.661000000    -0.480000000    -1.939000000
C    -0.328000000    -0.179000000    -0.167000000
H    -0.790000000     0.715000000    -0.571000000
C    -0.572000000    -0.621000000     1.148000000
H    -1.291000000    -0.057000000     1.737000000
C     0.028000000    -1.722000000     1.673000000
H    -0.212000000    -2.097000000     2.665000000
C     0.933000000    -2.523000000     0.857000000
C     1.324000000    -3.926000000     1.205000000
O     0.738000000    -4.359000000     2.206000000
O     1.945000000    -4.627000000     0.449000000
O     1.194000000    -8.463000000    -2.236000000
H     1.669000000    -7.632000000    -2.262000000
H     0.554000000    -8.395000000    -2.945000000
O     4.490000000    -5.695000000     0.571000000
H     3.802000000    -5.052000000     0.400000000
H     4.806000000    -5.943000000    -0.298000000
O     2.878000000    -5.829000000     6.719000000
H     3.489000000    -6.560000000     6.804000000
H     2.876000000    -5.626000000     5.783000000
O     2.339000000    -4.843000000     4.189000000
H     1.738000000    -4.784000000     3.446000000
H     2.113000000    -4.093000000     4.740000000
O    -1.664000000    -5.006000000     1.220000000
H    -0.824000000    -4.904000000     1.667000000
H    -2.228000000    -4.342000000     1.617000000
O     5.463000000    -6.699000000     5.953000000
H     5.166000000    -6.118000000     5.253000000
H     6.127000000    -6.191000000     6.419000000
O    -1.432000000    -7.050000000    -0.658000000
H    -0.930000000    -7.755000000    -0.248000000
H    -1.467000000    -6.363000000     0.008000000
O     4.675000000    -5.682000000     3.295000000
H     4.632000000    -5.684000000     2.339000000
H     3.780000000    -5.489000000     3.575000000
O     0.622000000    -7.829000000     3.058000000
H    -0.201000000    -8.187000000     2.725000000
H     1.155000000    -7.684000000     2.276000000
O     2.989000000    -9.819000000     1.085000000
H     2.816000000    -8.879000000     1.142000000
H     2.158000000   -10.231000000     1.322000000
O     0.495000000   -10.059000000    -0.032000000
H     0.787000000    -9.497000000    -0.750000000
H     0.743000000   -10.943000000    -0.304000000
O    -1.365000000    -5.896000000     6.991000000
H    -0.557000000    -5.575000000     7.392000000
H    -1.182000000    -5.895000000     6.052000000
O     2.059000000    -6.066000000    -1.620000000
H     2.155000000    -5.562000000    -0.812000000
H     1.257000000    -5.729000000    -2.018000000
O    -3.312000000    -6.922000000     2.916000000
H    -3.210000000    -7.763000000     2.470000000
H    -2.526000000    -6.429000000     2.681000000
O    -0.473000000    -5.641000000     4.247000000
H    -0.149000000    -5.061000000     3.558000000
H    -0.032000000    -6.475000000     4.085000000
O     1.998000000    -7.454000000     0.760000000
H     2.077000000    -7.643000000    -0.175000000
H     2.020000000    -6.499000000     0.814000000
O     4.041000000    -5.786000000    -4.055000000
H     3.908000000    -6.031000000    -3.139000000
H     4.918000000    -5.403000000    -4.076000000
O     7.713000000    -5.263000000     3.110000000
H     8.117000000    -6.121000000     2.983000000
H     6.797000000    -5.391000000     2.864000000
O    -0.362000000    -5.684000000    -2.760000000
H    -0.736000000    -4.811000000    -2.646000000
H    -0.833000000    -6.230000000    -2.130000000
