215
-1438.58629
C    -4.237000000    -2.048000000     1.264000000
H    -4.459000000    -1.796000000     0.230000000
C    -3.864000000    -1.057000000     2.133000000
C    -3.672000000    -1.370000000     3.447000000
H    -3.298000000    -0.652000000     4.172000000
C    -3.700000000     0.337000000     1.608000000
O    -4.773000000     0.699000000     0.722000000
H    -2.672000000     0.467000000     1.237000000
O    -3.856000000     1.234000000     2.793000000
C    -2.922000000     2.169000000     2.939000000
C    -1.871000000     1.983000000     3.884000000
H    -1.737000000     1.060000000     4.441000000
C    -0.821000000     2.898000000     3.848000000
O     0.319000000     2.693000000     4.546000000
C    -0.844000000     4.000000000     3.036000000
C     0.310000000     4.888000000     2.924000000
H    -0.051000000     5.902000000     2.737000000
C     1.374000000     4.456000000     1.951000000
C     1.417000000     4.946000000     0.653000000
H     0.729000000     5.645000000     0.183000000
H     0.745000000     5.087000000     3.905000000
C    -1.936000000     4.215000000     2.192000000
H    -1.890000000     5.067000000     1.519000000
C    -3.039000000     3.346000000     2.158000000
C    -4.243000000     3.503000000     1.203000000
H    -4.494000000     4.544000000     0.991000000
H    -5.177000000     3.210000000     1.687000000
C    -3.982000000     2.852000000    -0.125000000
C    -3.434000000     3.648000000    -1.128000000
H    -3.329000000     4.713000000    -0.932000000
C    -4.366000000     1.526000000    -0.335000000
C    -4.013000000     1.011000000    -1.540000000
H    -4.045000000    -0.070000000    -1.649000000
C    -3.392000000     1.761000000    -2.506000000
O    -3.041000000     1.047000000    -3.673000000
C    -1.599000000     0.798000000    -3.851000000
C    -1.254000000    -0.635000000    -4.266000000
C    -0.386000000    -0.874000000    -5.323000000
H     0.033000000    -0.043000000    -5.884000000
C    -1.831000000    -1.659000000    -3.530000000
H    -2.318000000    -1.450000000    -2.580000000
O    -1.151000000     1.775000000    -4.774000000
H    -1.226000000     0.991000000    -2.834000000
C    -3.094000000     3.105000000    -2.372000000
C    -2.334000000     3.974000000    -3.399000000
H    -2.451000000     5.047000000    -3.233000000
H    -2.867000000     3.750000000    -4.325000000
C    -0.864000000     3.635000000    -3.387000000
C    -0.044000000     4.421000000    -2.569000000
H    -0.459000000     5.145000000    -1.873000000
C    -0.318000000     2.586000000    -4.159000000
C     1.029000000     2.354000000    -4.098000000
H     1.448000000     1.526000000    -4.665000000
C     1.848000000     3.121000000    -3.289000000
O     3.135000000     2.645000000    -3.065000000
C     3.298000000     1.932000000    -1.815000000
C     3.932000000     0.602000000    -2.071000000
C     4.322000000     0.186000000    -3.335000000
H     4.468000000     0.919000000    -4.124000000
C     3.791000000    -0.375000000    -1.103000000
H     3.397000000    -0.161000000    -0.113000000
O     4.031000000     2.755000000    -0.827000000
H     2.297000000     1.757000000    -1.396000000
C     1.348000000     4.172000000    -2.562000000
C     2.264000000     4.982000000    -1.699000000
H     2.014000000     6.045000000    -1.667000000
H     3.262000000     4.974000000    -2.143000000
C     2.362000000     4.419000000    -0.239000000
C     3.199000000     3.351000000     0.062000000
C     3.243000000     2.984000000     1.372000000
H     3.919000000     2.161000000     1.589000000
C     2.257000000     3.458000000     2.335000000
O     2.288000000     2.910000000     3.591000000
C     1.267000000     1.929000000     3.804000000
H     0.750000000     1.636000000     2.878000000
C     1.753000000     0.616000000     4.444000000
C     1.086000000     0.053000000     5.556000000
H     0.116000000     0.438000000     5.859000000
C     2.918000000     0.005000000     4.021000000
H     3.568000000     0.441000000     3.267000000
C     3.377000000    -1.146000000     4.632000000
O     4.618000000    -1.718000000     4.327000000
C     2.671000000    -1.746000000     5.665000000
H     3.001000000    -2.682000000     6.110000000
C     1.503000000    -1.172000000     6.075000000
O     0.766000000    -1.873000000     6.979000000
C    -0.629000000    -1.900000000     7.089000000
C    -1.375000000    -2.432000000     6.055000000
H    -0.860000000    -2.743000000     5.150000000
C    -1.246000000    -1.241000000     8.180000000
H    -0.670000000    -0.776000000     8.975000000
C    -2.603000000    -1.229000000     8.271000000
H    -3.180000000    -0.731000000     9.046000000
C    -3.372000000    -1.845000000     7.269000000
H    -4.459000000    -1.853000000     7.253000000
C    -2.742000000    -2.402000000     6.185000000
O    -3.598000000    -3.033000000     5.225000000
C    -3.733000000    -2.685000000     3.871000000
C    -4.054000000    -3.735000000     3.007000000
H    -3.990000000    -4.776000000     3.315000000
C    -4.243000000    -3.402000000     1.649000000
O    -4.814000000    -4.386000000     0.836000000
C    -4.800000000    -4.355000000    -0.594000000
C    -3.520000000    -4.341000000    -1.180000000
H    -2.610000000    -4.542000000    -0.621000000
C    -5.971000000    -4.160000000    -1.375000000
H    -6.911000000    -4.141000000    -0.829000000
C    -5.800000000    -4.007000000    -2.729000000
H    -6.712000000    -3.898000000    -3.311000000
C    -4.535000000    -3.917000000    -3.341000000
H    -4.397000000    -3.708000000    -4.398000000
C    -3.401000000    -3.970000000    -2.518000000
O    -2.180000000    -4.001000000    -3.159000000
C    -1.624000000    -2.981000000    -3.877000000
C    -0.771000000    -3.248000000    -4.950000000
H    -0.710000000    -4.259000000    -5.344000000
C    -0.201000000    -2.202000000    -5.702000000
O     0.608000000    -2.519000000    -6.694000000
C     1.928000000    -2.645000000    -6.659000000
C     2.748000000    -2.122000000    -5.677000000
H     2.352000000    -1.571000000    -4.828000000
C     2.499000000    -3.347000000    -7.755000000
H     1.918000000    -3.888000000    -8.498000000
C     3.846000000    -3.581000000    -7.779000000
H     4.246000000    -4.053000000    -8.672000000
C     4.683000000    -2.948000000    -6.826000000
H     5.760000000    -3.094000000    -6.834000000
C     4.110000000    -2.156000000    -5.784000000
O     4.897000000    -1.599000000    -4.846000000
C     4.440000000    -1.144000000    -3.667000000
C     4.356000000    -2.098000000    -2.668000000
H     4.723000000    -3.092000000    -2.910000000
C     4.109000000    -1.721000000    -1.410000000
O     4.046000000    -2.640000000    -0.419000000
C     4.775000000    -2.425000000     0.742000000
C     6.115000000    -2.546000000     0.578000000
H     6.606000000    -2.675000000    -0.383000000
C     6.963000000    -2.347000000     1.659000000
H     8.043000000    -2.403000000     1.543000000
C     6.380000000    -2.150000000     2.904000000
H     7.056000000    -1.995000000     3.740000000
C     5.004000000    -1.981000000     3.077000000
C     4.191000000    -2.285000000     2.011000000
H     3.121000000    -2.092000000     2.043000000
C     0.737000000    -1.935000000    -0.707000000
H     1.180000000    -2.340000000    -1.614000000
C     0.401000000    -0.585000000    -0.811000000
H     0.702000000     0.061000000    -1.632000000
C    -0.153000000    -0.021000000     0.306000000
H    -0.491000000     1.042000000     0.239000000
C    -0.483000000    -0.771000000     1.398000000
H    -0.883000000    -0.388000000     2.333000000
C    -0.106000000    -2.115000000     1.494000000
H    -0.238000000    -2.605000000     2.455000000
C     0.535000000    -2.743000000     0.391000000
C     0.709000000    -4.222000000     0.414000000
O     0.753000000    -4.759000000     1.521000000
O     1.231000000    -4.696000000    -0.523000000
O     5.769000000    -5.468000000    -1.341000000
H     6.372000000    -5.882000000    -1.957000000
H     5.981000000    -4.536000000    -1.387000000
O     2.058000000    -5.354000000    -5.280000000
H     2.009000000    -4.440000000    -5.562000000
H     2.177000000    -5.306000000    -4.332000000
O     3.442000000    -5.416000000     1.332000000
H     2.497000000    -5.416000000     1.182000000
H     3.754000000    -4.623000000     0.896000000
O     1.376000000    -4.461000000     4.105000000
H     1.159000000    -4.488000000     3.173000000
H     0.657000000    -4.929000000     4.532000000
O    -2.341000000    -6.689000000    -4.364000000
H    -2.857000000    -5.895000000    -4.227000000
H    -2.311000000    -6.795000000    -5.315000000
O    -0.265000000    -7.242000000     1.915000000
H    -0.967000000    -7.301000000     1.268000000
H     0.106000000    -6.369000000     1.788000000
O    -0.559000000   -11.203000000     2.087000000
H    -0.427000000   -10.299000000     1.802000000
H    -0.509000000   -11.717000000     1.281000000
O    -3.202000000    -7.978000000     3.667000000
H    -2.912000000    -7.686000000     2.803000000
H    -3.781000000    -8.719000000     3.489000000
O    -2.651000000    -7.351000000     0.624000000
H    -2.350000000    -7.670000000    -0.227000000
H    -3.578000000    -7.588000000     0.655000000
O    -2.015000000    -8.140000000    -2.073000000
H    -1.116000000    -7.914000000    -1.835000000
H    -2.121000000    -7.800000000    -2.961000000
O     3.577000000    -7.963000000     2.616000000
H     4.020000000    -7.139000000     2.410000000
H     2.645000000    -7.761000000     2.533000000
O     7.111000000    -6.246000000     1.372000000
H     7.876000000    -6.611000000     0.926000000
H     6.576000000    -5.880000000     0.667000000
O     3.523000000    -8.635000000    -3.793000000
H     3.580000000    -8.560000000    -2.841000000
H     3.612000000    -9.572000000    -3.966000000
O     1.355000000    -9.455000000     0.626000000
H     0.781000000    -8.841000000     1.084000000
H     0.965000000    -9.544000000    -0.244000000
O     3.137000000    -5.208000000    -2.702000000
H     2.490000000    -5.078000000    -2.009000000
H     3.911000000    -5.540000000    -2.247000000
O    -0.982000000    -6.279000000     4.551000000
H    -0.410000000    -6.255000000     3.784000000
H    -1.574000000    -7.013000000     4.385000000
O     4.214000000    -7.816000000    -0.901000000
H     3.622000000    -7.664000000    -0.164000000
H     4.761000000    -7.031000000    -0.935000000
O     4.028000000    -5.093000000     4.158000000
H     4.107000000    -5.404000000     3.256000000
H     3.091000000    -4.938000000     4.276000000
O     0.238000000    -6.904000000    -1.429000000
H     0.580000000    -6.152000000    -0.946000000
H     0.445000000    -6.715000000    -2.344000000
