215
-1459.72379
C    -4.837000000    -1.896000000     0.650000000
H    -4.976000000    -1.393000000    -0.303000000
C    -4.365000000    -1.072000000     1.710000000
C    -3.950000000    -1.748000000     2.885000000
H    -3.475000000    -1.155000000     3.662000000
C    -4.057000000     0.377000000     1.435000000
O    -4.951000000     0.991000000     0.442000000
H    -3.014000000     0.431000000     1.090000000
O    -4.077000000     1.103000000     2.690000000
C    -3.001000000     1.955000000     2.969000000
C    -1.978000000     1.499000000     3.789000000
H    -2.090000000     0.580000000     4.358000000
C    -0.797000000     2.293000000     3.845000000
O     0.205000000     1.767000000     4.572000000
C    -0.655000000     3.466000000     3.217000000
C     0.573000000     4.365000000     3.497000000
H     0.268000000     5.409000000     3.402000000
C     1.661000000     3.928000000     2.492000000
C     1.838000000     4.780000000     1.332000000
H     1.194000000     5.649000000     1.225000000
H     0.914000000     4.273000000     4.530000000
C    -1.689000000     3.903000000     2.454000000
H    -1.663000000     4.943000000     2.139000000
C    -2.868000000     3.166000000     2.280000000
C    -4.029000000     3.637000000     1.407000000
H    -4.085000000     4.721000000     1.525000000
H    -4.914000000     3.247000000     1.914000000
C    -3.857000000     3.183000000     0.006000000
C    -3.146000000     3.963000000    -0.867000000
H    -2.745000000     4.891000000    -0.468000000
C    -4.315000000     1.905000000    -0.439000000
C    -4.053000000     1.492000000    -1.760000000
H    -4.373000000     0.512000000    -2.105000000
C    -3.290000000     2.347000000    -2.631000000
O    -2.880000000     1.773000000    -3.835000000
C    -1.587000000     1.250000000    -3.839000000
C    -1.470000000    -0.105000000    -4.570000000
C    -0.431000000    -0.472000000    -5.489000000
H     0.277000000     0.308000000    -5.760000000
C    -2.341000000    -1.134000000    -4.235000000
H    -3.104000000    -0.827000000    -3.524000000
O    -0.722000000     2.274000000    -4.395000000
H    -1.187000000     1.127000000    -2.822000000
C    -2.792000000     3.607000000    -2.172000000
C    -1.888000000     4.481000000    -2.952000000
H    -2.223000000     5.497000000    -2.733000000
H    -2.194000000     4.418000000    -3.999000000
C    -0.389000000     4.161000000    -2.856000000
C     0.459000000     4.988000000    -2.123000000
H     0.206000000     5.781000000    -1.425000000
C     0.078000000     2.974000000    -3.561000000
C     1.417000000     2.660000000    -3.498000000
H     1.700000000     1.740000000    -4.003000000
C     2.335000000     3.448000000    -2.872000000
O     3.568000000     2.842000000    -2.676000000
C     3.546000000     1.924000000    -1.534000000
C     4.153000000     0.591000000    -1.891000000
C     4.439000000     0.234000000    -3.233000000
H     4.257000000     1.029000000    -3.951000000
C     4.400000000    -0.305000000    -0.848000000
H     4.120000000    -0.030000000     0.166000000
O     4.301000000     2.584000000    -0.457000000
H     2.531000000     1.766000000    -1.142000000
C     1.841000000     4.517000000    -2.068000000
C     2.755000000     5.112000000    -1.036000000
H     2.472000000     6.132000000    -0.768000000
H     3.795000000     5.184000000    -1.362000000
C     2.696000000     4.352000000     0.294000000
C     3.441000000     3.172000000     0.502000000
C     3.379000000     2.523000000     1.746000000
H     4.043000000     1.675000000     1.889000000
C     2.553000000     2.870000000     2.785000000
O     2.424000000     2.026000000     3.856000000
C     1.333000000     1.082000000     3.895000000
H     0.992000000     0.877000000     2.869000000
C     1.713000000    -0.339000000     4.495000000
C     0.837000000    -1.006000000     5.324000000
H    -0.176000000    -0.626000000     5.426000000
C     2.968000000    -0.864000000     4.252000000
H     3.721000000    -0.288000000     3.719000000
C     3.329000000    -2.031000000     4.947000000
O     4.604000000    -2.517000000     4.710000000
C     2.451000000    -2.753000000     5.766000000
H     2.705000000    -3.686000000     6.264000000
C     1.163000000    -2.162000000     5.906000000
O     0.260000000    -2.793000000     6.729000000
C    -1.120000000    -2.865000000     6.560000000
C    -1.754000000    -3.255000000     5.357000000
H    -1.104000000    -3.730000000     4.627000000
C    -1.955000000    -2.414000000     7.628000000
H    -1.484000000    -2.128000000     8.564000000
C    -3.353000000    -2.343000000     7.471000000
H    -4.024000000    -1.982000000     8.246000000
C    -3.948000000    -2.841000000     6.300000000
H    -5.027000000    -2.795000000     6.174000000
C    -3.173000000    -3.296000000     5.231000000
O    -3.727000000    -3.817000000     4.097000000
C    -4.133000000    -3.138000000     2.984000000
C    -4.615000000    -3.873000000     1.911000000
H    -4.638000000    -4.959000000     1.958000000
C    -4.976000000    -3.254000000     0.751000000
O    -5.479000000    -4.015000000    -0.225000000
C    -5.372000000    -3.521000000    -1.569000000
C    -4.247000000    -3.830000000    -2.329000000
H    -3.494000000    -4.502000000    -1.924000000
C    -6.437000000    -2.821000000    -2.189000000
H    -7.285000000    -2.649000000    -1.531000000
C    -6.371000000    -2.400000000    -3.507000000
H    -7.267000000    -1.901000000    -3.867000000
C    -5.178000000    -2.660000000    -4.253000000
H    -5.133000000    -2.236000000    -5.253000000
C    -4.183000000    -3.402000000    -3.690000000
O    -2.975000000    -3.499000000    -4.386000000
C    -2.217000000    -2.432000000    -4.772000000
C    -1.186000000    -2.728000000    -5.643000000
H    -0.992000000    -3.768000000    -5.893000000
C    -0.261000000    -1.769000000    -5.898000000
O     0.695000000    -2.029000000    -6.885000000
C     1.959000000    -2.428000000    -6.513000000
C     2.820000000    -1.569000000    -5.768000000
H     2.467000000    -0.633000000    -5.343000000
C     2.365000000    -3.641000000    -7.012000000
H     1.678000000    -4.177000000    -7.663000000
C     3.737000000    -4.068000000    -6.909000000
H     4.111000000    -5.016000000    -7.287000000
C     4.645000000    -3.209000000    -6.294000000
H     5.608000000    -3.687000000    -6.132000000
C     4.220000000    -1.973000000    -5.716000000
O     5.134000000    -1.341000000    -4.946000000
C     4.946000000    -1.059000000    -3.550000000
C     5.115000000    -1.964000000    -2.457000000
H     5.558000000    -2.941000000    -2.634000000
C     4.907000000    -1.541000000    -1.140000000
O     4.964000000    -2.470000000    -0.137000000
C     5.481000000    -2.150000000     1.167000000
C     6.749000000    -1.556000000     1.296000000
H     7.332000000    -1.394000000     0.393000000
C     7.315000000    -1.292000000     2.567000000
H     8.281000000    -0.815000000     2.708000000
C     6.623000000    -1.668000000     3.720000000
H     7.072000000    -1.559000000     4.705000000
C     5.379000000    -2.296000000     3.539000000
C     4.809000000    -2.481000000     2.317000000
H     3.788000000    -2.840000000     2.208000000
C     1.105000000    -1.495000000    -0.477000000
H     1.529000000    -1.593000000    -1.473000000
C     0.398000000    -0.296000000    -0.223000000
H     0.399000000     0.460000000    -1.004000000
C    -0.286000000    -0.126000000     0.959000000
H    -0.738000000     0.833000000     1.080000000
C    -0.297000000    -1.172000000     1.910000000
H    -0.797000000    -0.987000000     2.857000000
C     0.359000000    -2.349000000     1.676000000
H     0.287000000    -3.210000000     2.337000000
C     1.115000000    -2.536000000     0.480000000
C     1.670000000    -3.895000000     0.004000000
O     1.332000000    -4.831000000     0.675000000
O     2.289000000    -4.078000000    -1.047000000
O    -0.765000000    -9.363000000    -2.462000000
H    -1.380000000    -8.711000000    -2.797000000
H     0.087000000    -9.085000000    -2.799000000
O     3.739000000    -7.819000000    -4.509000000
H     3.125000000    -7.330000000    -5.057000000
H     3.964000000    -7.212000000    -3.803000000
O     1.863000000    -9.295000000    -3.007000000
H     2.489000000    -9.743000000    -2.439000000
H     2.313000000    -8.493000000    -3.273000000
O     4.624000000    -5.392000000     0.365000000
H     3.735000000    -5.277000000     0.031000000
H     5.153000000    -4.779000000    -0.147000000
O     2.361000000    -5.506000000     3.055000000
H     1.962000000    -5.226000000     2.231000000
H     1.865000000    -6.284000000     3.308000000
O    -1.622000000    -6.890000000    -3.962000000
H    -1.049000000    -6.183000000    -3.664000000
H    -1.895000000    -6.623000000    -4.839000000
O    -1.173000000    -5.327000000     1.449000000
H    -1.462000000    -5.536000000     0.561000000
H    -0.238000000    -5.141000000     1.359000000
O     2.653000000    -9.572000000     1.623000000
H     3.367000000    -9.064000000     2.007000000
H     3.025000000    -9.943000000     0.822000000
O    -1.154000000    -8.675000000     1.312000000
H    -1.915000000    -8.113000000     1.162000000
H    -1.284000000    -9.417000000     0.722000000
O    -3.354000000    -7.362000000     0.573000000
H    -4.264000000    -7.497000000     0.836000000
H    -3.374000000    -7.398000000    -0.384000000
O     4.760000000    -6.702000000     2.759000000
H     4.987000000    -6.393000000     1.882000000
H     3.939000000    -6.256000000     2.966000000
O     4.215000000    -7.702000000    -1.470000000
H     4.774000000    -7.156000000    -0.918000000
H     3.360000000    -7.680000000    -1.040000000
O     3.427000000    -5.040000000    -3.459000000
H     3.197000000    -4.481000000    -2.717000000
H     2.602000000    -5.167000000    -3.928000000
O    -2.519000000    -6.632000000     3.245000000
H    -2.923000000    -7.202000000     2.590000000
H    -2.006000000    -6.006000000     2.733000000
O     0.229000000    -7.340000000     4.218000000
H    -0.721000000    -7.384000000     4.113000000
H     0.546000000    -8.181000000     3.888000000
O     1.799000000    -7.217000000    -0.071000000
H     1.161000000    -7.770000000     0.379000000
H     1.549000000    -6.323000000     0.163000000
O     5.982000000    -5.550000000     4.890000000
H     5.490000000    -5.285000000     5.667000000
H     5.311000000    -5.791000000     4.252000000
O     6.009000000    -5.963000000    -3.763000000
H     5.109000000    -5.635000000    -3.766000000
H     6.296000000    -5.867000000    -2.855000000
O     0.183000000    -4.636000000    -3.075000000
H     0.405000000    -4.839000000    -2.166000000
H     0.018000000    -3.693000000    -3.076000000
