215
-1431.23739
C    -5.865000000    -0.967000000     0.408000000
H    -6.282000000    -0.324000000    -0.363000000
C    -4.939000000    -0.469000000     1.330000000
C    -4.395000000    -1.356000000     2.249000000
H    -3.517000000    -1.078000000     2.827000000
C    -4.287000000     0.886000000     1.053000000
O    -4.992000000     1.648000000     0.030000000
H    -3.291000000     0.741000000     0.608000000
O    -4.188000000     1.605000000     2.314000000
C    -3.061000000     2.358000000     2.472000000
C    -2.129000000     1.908000000     3.415000000
H    -2.220000000     0.978000000     3.971000000
C    -0.953000000     2.582000000     3.600000000
O     0.043000000     2.155000000     4.455000000
C    -0.716000000     3.816000000     2.944000000
C     0.634000000     4.577000000     3.241000000
H     0.556000000     5.621000000     2.931000000
C     1.773000000     4.084000000     2.347000000
C     1.988000000     4.551000000     1.102000000
H     1.341000000     5.351000000     0.754000000
H     0.853000000     4.574000000     4.311000000
C    -1.709000000     4.338000000     2.070000000
H    -1.510000000     5.258000000     1.525000000
C    -2.865000000     3.641000000     1.821000000
C    -3.782000000     4.172000000     0.739000000
H    -3.702000000     5.251000000     0.590000000
H    -4.826000000     4.075000000     1.044000000
C    -3.549000000     3.462000000    -0.606000000
C    -2.656000000     4.093000000    -1.550000000
H    -2.008000000     4.913000000    -1.251000000
C    -4.154000000     2.209000000    -0.906000000
C    -3.888000000     1.518000000    -2.067000000
H    -4.381000000     0.602000000    -2.381000000
C    -3.007000000     2.146000000    -2.972000000
O    -2.527000000     1.354000000    -4.056000000
C    -1.276000000     0.815000000    -3.950000000
C    -1.324000000    -0.620000000    -4.402000000
C    -0.435000000    -1.152000000    -5.235000000
H     0.287000000    -0.521000000    -5.749000000
C    -2.189000000    -1.432000000    -3.739000000
H    -3.004000000    -1.004000000    -3.162000000
O    -0.263000000     1.591000000    -4.643000000
H    -1.054000000     0.913000000    -2.877000000
C    -2.349000000     3.367000000    -2.722000000
C    -1.325000000     3.972000000    -3.705000000
H    -1.375000000     5.063000000    -3.674000000
H    -1.522000000     3.708000000    -4.746000000
C     0.066000000     3.559000000    -3.375000000
C     0.907000000     4.270000000    -2.483000000
H     0.519000000     5.158000000    -1.991000000
C     0.547000000     2.388000000    -3.956000000
C     1.871000000     1.988000000    -3.681000000
H     2.199000000     1.099000000    -4.214000000
C     2.629000000     2.703000000    -2.824000000
O     3.753000000     2.144000000    -2.325000000
C     3.910000000     1.407000000    -1.047000000
C     4.615000000     0.103000000    -1.200000000
C     4.209000000    -0.812000000    -2.242000000
H     3.442000000    -0.531000000    -2.959000000
C     5.545000000    -0.288000000    -0.262000000
H     5.834000000     0.314000000     0.596000000
O     4.513000000     2.304000000    -0.134000000
H     2.909000000     1.182000000    -0.651000000
C     2.163000000     3.879000000    -2.186000000
C     3.110000000     4.620000000    -1.131000000
H     2.910000000     5.693000000    -1.115000000
H     4.125000000     4.415000000    -1.477000000
C     2.930000000     4.039000000     0.276000000
C     3.643000000     2.924000000     0.694000000
C     3.467000000     2.384000000     1.934000000
H     4.038000000     1.518000000     2.259000000
C     2.517000000     2.976000000     2.789000000
O     2.250000000     2.412000000     4.008000000
C     1.194000000     1.522000000     3.865000000
H     1.084000000     1.374000000     2.781000000
C     1.456000000     0.147000000     4.440000000
C     0.478000000    -0.737000000     4.934000000
H    -0.516000000    -0.297000000     4.967000000
C     2.764000000    -0.371000000     4.414000000
H     3.589000000     0.314000000     4.237000000
C     3.068000000    -1.600000000     4.927000000
O     4.353000000    -2.095000000     4.943000000
C     2.073000000    -2.388000000     5.493000000
H     2.433000000    -3.347000000     5.855000000
C     0.735000000    -2.027000000     5.406000000
O    -0.286000000    -2.890000000     5.790000000
C    -1.613000000    -2.658000000     5.562000000
C    -2.323000000    -3.242000000     4.520000000
H    -1.818000000    -3.669000000     3.658000000
C    -2.325000000    -2.176000000     6.680000000
H    -1.735000000    -1.912000000     7.553000000
C    -3.711000000    -2.100000000     6.630000000
H    -4.373000000    -1.774000000     7.429000000
C    -4.358000000    -2.462000000     5.407000000
H    -5.439000000    -2.388000000     5.314000000
C    -3.704000000    -3.048000000     4.364000000
O    -4.316000000    -3.553000000     3.283000000
C    -4.811000000    -2.709000000     2.319000000
C    -5.771000000    -3.105000000     1.542000000
H    -6.021000000    -4.163000000     1.536000000
C    -6.288000000    -2.280000000     0.509000000
O    -6.948000000    -2.824000000    -0.547000000
C    -6.362000000    -3.037000000    -1.791000000
C    -4.972000000    -3.106000000    -1.977000000
H    -4.265000000    -3.178000000    -1.155000000
C    -7.144000000    -3.018000000    -2.890000000
H    -8.207000000    -2.842000000    -2.748000000
C    -6.579000000    -3.196000000    -4.186000000
H    -7.124000000    -3.195000000    -5.127000000
C    -5.249000000    -3.566000000    -4.325000000
H    -4.798000000    -3.813000000    -5.283000000
C    -4.386000000    -3.410000000    -3.220000000
O    -3.019000000    -3.639000000    -3.336000000
C    -2.181000000    -2.817000000    -3.937000000
C    -1.249000000    -3.349000000    -4.848000000
H    -1.150000000    -4.411000000    -5.059000000
C    -0.328000000    -2.538000000    -5.432000000
O     0.684000000    -3.058000000    -6.192000000
C     1.998000000    -3.025000000    -5.798000000
C     2.385000000    -3.036000000    -4.444000000
H     1.646000000    -3.091000000    -3.649000000
C     2.884000000    -3.123000000    -6.872000000
H     2.681000000    -3.177000000    -7.938000000
C     4.234000000    -3.033000000    -6.604000000
H     5.029000000    -3.119000000    -7.340000000
C     4.631000000    -3.001000000    -5.279000000
H     5.664000000    -3.102000000    -4.955000000
C     3.738000000    -2.979000000    -4.202000000
O     4.167000000    -3.163000000    -2.952000000
C     4.694000000    -2.161000000    -2.178000000
C     5.610000000    -2.559000000    -1.153000000
H     5.982000000    -3.578000000    -1.087000000
C     6.094000000    -1.589000000    -0.262000000
O     6.901000000    -2.083000000     0.729000000
C     6.695000000    -1.806000000     2.054000000
C     7.586000000    -0.939000000     2.671000000
H     8.415000000    -0.548000000     2.086000000
C     7.415000000    -0.508000000     3.954000000
H     8.133000000     0.139000000     4.453000000
C     6.336000000    -0.947000000     4.704000000
H     6.240000000    -0.805000000     5.778000000
C     5.440000000    -1.790000000     4.115000000
C     5.552000000    -2.261000000     2.819000000
H     4.799000000    -2.904000000     2.370000000
C     1.006000000    -2.005000000    -0.391000000
H     1.523000000    -2.599000000    -1.140000000
C     0.861000000    -0.662000000    -0.691000000
H     1.348000000    -0.238000000    -1.566000000
C     0.183000000     0.133000000     0.120000000
H     0.088000000     1.225000000    -0.149000000
C    -0.445000000    -0.399000000     1.261000000
H    -1.000000000     0.343000000     1.830000000
C    -0.433000000    -1.744000000     1.510000000
H    -1.090000000    -2.156000000     2.272000000
C     0.342000000    -2.571000000     0.734000000
C     0.377000000    -3.984000000     0.972000000
O     0.153000000    -4.331000000     2.112000000
O     0.992000000    -4.738000000     0.315000000
O    -4.024000000    -6.319000000    -0.243000000
H    -3.342000000    -6.369000000     0.426000000
H    -4.813000000    -6.638000000     0.195000000
O     5.853000000    -7.604000000     0.202000000
H     6.031000000    -6.800000000     0.690000000
H     4.917000000    -7.759000000     0.328000000
O     2.429000000    -6.318000000    -1.461000000
H     2.261000000    -5.731000000    -0.724000000
H     2.771000000    -7.116000000    -1.059000000
O     2.269000000    -6.094000000     6.181000000
H     1.440000000    -6.385000000     5.800000000
H     2.126000000    -6.136000000     7.126000000
O     2.421000000    -5.203000000     3.482000000
H     1.752000000    -4.861000000     2.890000000
H     2.009000000    -5.185000000     4.346000000
O    -2.650000000    -5.450000000     2.003000000
H    -1.765000000    -5.103000000     2.117000000
H    -3.180000000    -4.685000000     1.778000000
O    -3.700000000    -7.502000000    -3.445000000
H    -3.593000000    -7.235000000    -2.532000000
H    -2.847000000    -7.865000000    -3.689000000
O     3.207000000    -7.953000000     0.421000000
H     2.959000000    -7.751000000     1.323000000
H     2.881000000    -8.842000000     0.277000000
O    -4.260000000    -7.194000000     4.310000000
H    -4.395000000    -8.116000000     4.093000000
H    -3.941000000    -6.800000000     3.498000000
O     3.711000000    -4.295000000     0.783000000
H     3.106000000    -4.493000000     0.068000000
H     3.167000000    -4.315000000     1.570000000
O    -2.650000000    -9.261000000     1.439000000
H    -2.370000000    -9.804000000     0.702000000
H    -2.397000000    -8.372000000     1.191000000
O     3.296000000    -7.797000000     3.165000000
H     3.142000000    -6.868000000     3.339000000
H     4.247000000    -7.895000000     3.214000000
O    -0.447000000    -8.344000000    -0.720000000
H    -0.762000000    -7.542000000    -1.137000000
H     0.004000000    -8.043000000     0.068000000
O    -1.020000000    -5.272000000     6.990000000
H    -0.833000000    -4.348000000     6.824000000
H    -0.557000000    -5.739000000     6.295000000
O    -0.913000000    -5.648000000    -1.583000000
H    -0.114000000    -5.294000000    -1.190000000
H    -1.619000000    -5.131000000    -1.195000000
O    -0.221000000    -6.587000000     4.482000000
H    -0.236000000    -6.014000000     3.716000000
H    -0.456000000    -7.450000000     4.141000000
O     0.656000000    -7.415000000     1.777000000
H     1.310000000    -7.596000000     2.452000000
H     0.479000000    -6.478000000     1.862000000
O     1.272000000    -5.976000000    -3.743000000
H     0.360000000    -5.700000000    -3.654000000
H     1.585000000    -6.065000000    -2.843000000
O     6.376000000    -4.973000000     1.211000000
H     6.540000000    -4.162000000     1.691000000
H     5.591000000    -4.791000000     0.694000000
