215
-1459.63200
C    -4.673000000    -1.908000000     0.853000000
H    -4.542000000    -1.576000000    -0.174000000
C    -4.590000000    -0.982000000     1.941000000
C    -4.627000000    -1.389000000     3.240000000
H    -4.421000000    -0.684000000     4.042000000
C    -4.065000000     0.453000000     1.538000000
O    -4.824000000     1.124000000     0.495000000
H    -3.042000000     0.437000000     1.135000000
O    -4.029000000     1.259000000     2.706000000
C    -2.973000000     2.114000000     2.893000000
C    -1.953000000     1.705000000     3.742000000
H    -2.027000000     0.670000000     4.069000000
C    -0.850000000     2.498000000     3.930000000
O     0.190000000     1.870000000     4.578000000
C    -0.706000000     3.745000000     3.230000000
C     0.570000000     4.525000000     3.286000000
H     0.355000000     5.593000000     3.201000000
C     1.632000000     4.025000000     2.325000000
C     1.723000000     4.649000000     1.116000000
H     1.039000000     5.488000000     1.014000000
H     0.957000000     4.397000000     4.299000000
C    -1.823000000     4.143000000     2.430000000
H    -1.717000000     5.064000000     1.862000000
C    -2.909000000     3.337000000     2.234000000
C    -4.023000000     3.815000000     1.301000000
H    -3.975000000     4.904000000     1.244000000
H    -4.977000000     3.507000000     1.733000000
C    -3.776000000     3.232000000    -0.085000000
C    -3.142000000     3.983000000    -1.088000000
H    -2.902000000     5.002000000    -0.796000000
C    -4.205000000     1.944000000    -0.419000000
C    -3.964000000     1.422000000    -1.685000000
H    -4.178000000     0.377000000    -1.898000000
C    -3.210000000     2.143000000    -2.602000000
O    -2.828000000     1.494000000    -3.791000000
C    -1.508000000     1.026000000    -3.800000000
C    -1.432000000    -0.416000000    -4.347000000
C    -0.665000000    -0.749000000    -5.486000000
H    -0.094000000    -0.008000000    -6.038000000
C    -2.038000000    -1.504000000    -3.675000000
H    -2.729000000    -1.230000000    -2.882000000
O    -0.775000000     1.887000000    -4.527000000
H    -1.131000000     0.980000000    -2.767000000
C    -2.829000000     3.440000000    -2.315000000
C    -1.920000000     4.263000000    -3.307000000
H    -2.179000000     5.323000000    -3.266000000
H    -2.263000000     3.962000000    -4.299000000
C    -0.438000000     3.924000000    -3.195000000
C     0.403000000     4.639000000    -2.333000000
H    -0.053000000     5.484000000    -1.824000000
C     0.053000000     2.825000000    -3.906000000
C     1.380000000     2.422000000    -3.821000000
H     1.729000000     1.542000000    -4.355000000
C     2.190000000     3.072000000    -2.924000000
O     3.508000000     2.664000000    -2.770000000
C     3.821000000     1.864000000    -1.577000000
C     4.570000000     0.561000000    -1.920000000
C     4.211000000    -0.158000000    -3.073000000
H     3.571000000     0.275000000    -3.837000000
C     5.109000000    -0.136000000    -0.836000000
H     5.214000000     0.283000000     0.162000000
O     4.338000000     2.637000000    -0.469000000
H     2.814000000     1.520000000    -1.299000000
C     1.704000000     4.179000000    -2.175000000
C     2.619000000     4.864000000    -1.183000000
H     2.417000000     5.912000000    -0.951000000
H     3.615000000     4.893000000    -1.629000000
C     2.615000000     4.253000000     0.184000000
C     3.511000000     3.153000000     0.449000000
C     3.394000000     2.465000000     1.695000000
H     4.158000000     1.715000000     1.887000000
C     2.469000000     2.922000000     2.603000000
O     2.301000000     2.166000000     3.763000000
C     1.226000000     1.300000000     3.726000000
H     0.895000000     1.110000000     2.694000000
C     1.600000000    -0.096000000     4.292000000
C     0.586000000    -0.978000000     4.696000000
H    -0.454000000    -0.670000000     4.620000000
C     2.886000000    -0.563000000     4.209000000
H     3.651000000    -0.018000000     3.662000000
C     3.178000000    -1.868000000     4.653000000
O     4.405000000    -2.436000000     4.502000000
C     2.207000000    -2.631000000     5.233000000
H     2.329000000    -3.662000000     5.553000000
C     0.855000000    -2.220000000     5.210000000
O    -0.114000000    -3.148000000     5.409000000
C    -1.335000000    -2.868000000     5.922000000
C    -2.412000000    -2.951000000     5.077000000
H    -2.228000000    -3.128000000     4.021000000
C    -1.481000000    -2.677000000     7.277000000
H    -0.585000000    -2.515000000     7.871000000
C    -2.762000000    -2.494000000     7.842000000
H    -2.961000000    -2.324000000     8.896000000
C    -3.867000000    -2.616000000     7.015000000
H    -4.852000000    -2.636000000     7.474000000
C    -3.672000000    -2.869000000     5.604000000
O    -4.764000000    -3.094000000     4.841000000
C    -4.870000000    -2.697000000     3.524000000
C    -5.078000000    -3.651000000     2.526000000
H    -5.275000000    -4.694000000     2.759000000
C    -5.031000000    -3.257000000     1.226000000
O    -5.351000000    -4.249000000     0.285000000
C    -5.232000000    -4.066000000    -1.081000000
C    -3.953000000    -3.992000000    -1.544000000
H    -3.153000000    -3.962000000    -0.808000000
C    -6.290000000    -4.149000000    -2.028000000
H    -7.334000000    -4.188000000    -1.729000000
C    -6.062000000    -4.136000000    -3.426000000
H    -6.890000000    -4.233000000    -4.124000000
C    -4.735000000    -3.972000000    -3.859000000
H    -4.484000000    -3.768000000    -4.897000000
C    -3.746000000    -3.889000000    -2.898000000
O    -2.423000000    -3.823000000    -3.311000000
C    -1.865000000    -2.832000000    -4.045000000
C    -1.055000000    -3.160000000    -5.099000000
H    -0.974000000    -4.164000000    -5.509000000
C    -0.509000000    -2.121000000    -5.832000000
O     0.390000000    -2.439000000    -6.857000000
C     1.737000000    -2.054000000    -6.846000000
C     2.365000000    -2.220000000    -5.564000000
H     1.758000000    -2.580000000    -4.737000000
C     2.425000000    -1.633000000    -8.003000000
H     1.966000000    -1.459000000    -8.972000000
C     3.775000000    -1.304000000    -7.869000000
H     4.412000000    -1.048000000    -8.712000000
C     4.428000000    -1.316000000    -6.577000000
H     5.486000000    -1.070000000    -6.542000000
C     3.675000000    -1.841000000    -5.483000000
O     4.294000000    -2.154000000    -4.334000000
C     4.637000000    -1.440000000    -3.300000000
C     5.248000000    -2.127000000    -2.292000000
H     5.443000000    -3.187000000    -2.435000000
C     5.542000000    -1.502000000    -1.097000000
O     5.951000000    -2.316000000    -0.011000000
C     6.074000000    -1.975000000     1.265000000
C     7.308000000    -1.392000000     1.716000000
H     8.100000000    -1.158000000     1.009000000
C     7.521000000    -1.210000000     3.056000000
H     8.523000000    -0.927000000     3.368000000
C     6.546000000    -1.498000000     4.001000000
H     6.685000000    -1.284000000     5.058000000
C     5.340000000    -2.055000000     3.572000000
C     5.096000000    -2.289000000     2.240000000
H     4.105000000    -2.703000000     2.077000000
C     0.374000000    -1.878000000    -1.317000000
H     0.728000000    -2.384000000    -2.211000000
C     0.722000000    -0.555000000    -1.074000000
H     1.412000000    -0.068000000    -1.759000000
C     0.283000000     0.143000000     0.022000000
H     0.628000000     1.184000000     0.181000000
C    -0.509000000    -0.473000000     0.986000000
H    -0.670000000     0.082000000     1.907000000
C    -0.755000000    -1.880000000     0.867000000
H    -1.313000000    -2.464000000     1.594000000
C    -0.240000000    -2.596000000    -0.265000000
C    -0.446000000    -4.121000000    -0.406000000
O    -0.980000000    -4.720000000     0.525000000
O     0.107000000    -4.770000000    -1.280000000
O     3.321000000    -6.862000000    -4.915000000
H     3.307000000    -6.765000000    -3.963000000
H     2.398000000    -6.918000000    -5.163000000
O    -4.312000000    -8.111000000    -3.239000000
H    -4.637000000    -7.947000000    -2.354000000
H    -3.809000000    -7.327000000    -3.459000000
O     0.615000000    -7.242000000    -2.601000000
H    -0.340000000    -7.202000000    -2.629000000
H     0.878000000    -6.413000000    -2.200000000
O     0.966000000    -4.239000000     2.535000000
H     0.391000000    -4.226000000     1.770000000
H     0.378000000    -4.393000000     3.274000000
O    -1.884000000    -6.529000000    -3.329000000
H    -2.060000000    -6.639000000    -4.263000000
H    -1.958000000    -5.587000000    -3.181000000
O    -0.037000000    -6.179000000     5.667000000
H     0.536000000    -5.849000000     4.975000000
H    -0.467000000    -5.397000000     6.014000000
O    -5.660000000    -7.122000000    -1.205000000
H    -6.548000000    -6.850000000    -0.973000000
H    -5.098000000    -6.435000000    -0.845000000
O    -1.661000000    -8.660000000     4.388000000
H    -0.830000000    -8.428000000     4.802000000
H    -1.567000000    -8.367000000     3.481000000
O    -2.378000000    -6.861000000    -0.536000000
H    -2.098000000    -6.877000000    -1.452000000
H    -1.952000000    -6.087000000    -0.169000000
O     4.571000000    -5.510000000     3.623000000
H     3.688000000    -5.179000000     3.458000000
H     4.729000000    -6.133000000     2.913000000
O     0.963000000    -8.740000000     0.465000000
H     0.793000000    -9.352000000    -0.251000000
H     1.306000000    -7.957000000     0.034000000
O    -3.716000000    -8.607000000     1.158000000
H    -2.946000000    -8.038000000     1.174000000
H    -3.995000000    -8.606000000     0.242000000
O     0.507000000    -9.833000000    -2.392000000
H     0.842000000    -8.938000000    -2.329000000
H     0.306000000    -9.948000000    -3.321000000
O     4.149000000    -6.944000000    -2.210000000
H     3.611000000    -7.704000000    -1.991000000
H     4.066000000    -6.365000000    -1.452000000
O    -1.298000000    -7.474000000     1.957000000
H    -0.679000000    -7.842000000     1.326000000
H    -1.387000000    -6.557000000     1.697000000
O     0.746000000    -6.752000000    -5.742000000
H     0.415000000    -6.695000000    -4.845000000
H     0.105000000    -7.297000000    -6.199000000
O     1.661000000    -6.067000000     0.311000000
H     0.984000000    -5.691000000    -0.250000000
H     2.462000000    -5.603000000     0.064000000
O     3.967000000    -4.832000000    -0.384000000
H     3.648000000    -3.941000000    -0.527000000
H     4.899000000    -4.725000000    -0.191000000
O     1.748000000    -6.832000000     3.075000000
H     1.473000000    -7.682000000     2.730000000
H     1.668000000    -6.234000000     2.332000000
