215
-1464.66255
C    -4.966000000    -0.935000000     0.595000000
H    -5.174000000    -0.580000000    -0.411000000
C    -4.276000000    -0.216000000     1.521000000
C    -3.842000000    -0.774000000     2.747000000
H    -3.205000000    -0.148000000     3.367000000
C    -3.732000000     1.196000000     1.181000000
O    -4.425000000     1.818000000     0.102000000
H    -2.694000000     1.079000000     0.837000000
O    -3.741000000     2.101000000     2.298000000
C    -2.615000000     2.962000000     2.396000000
C    -1.617000000     2.615000000     3.326000000
H    -1.703000000     1.797000000     4.036000000
C    -0.359000000     3.252000000     3.330000000
O     0.571000000     2.754000000     4.183000000
C    -0.102000000     4.222000000     2.405000000
C     1.276000000     5.040000000     2.398000000
H     1.077000000     6.046000000     2.022000000
C     2.387000000     4.327000000     1.565000000
C     2.595000000     4.643000000     0.231000000
H     2.105000000     5.538000000    -0.143000000
H     1.671000000     5.037000000     3.416000000
C    -1.088000000     4.625000000     1.517000000
H    -0.920000000     5.420000000     0.795000000
C    -2.340000000     3.974000000     1.464000000
C    -3.246000000     4.465000000     0.377000000
H    -3.008000000     5.511000000     0.174000000
H    -4.275000000     4.594000000     0.720000000
C    -3.062000000     3.580000000    -0.837000000
C    -2.274000000     4.068000000    -1.879000000
H    -1.735000000     5.008000000    -1.786000000
C    -3.704000000     2.327000000    -0.898000000
C    -3.599000000     1.562000000    -2.026000000
H    -4.196000000     0.653000000    -2.015000000
C    -2.898000000     1.999000000    -3.119000000
O    -2.682000000     1.254000000    -4.191000000
C    -1.628000000     0.308000000    -4.025000000
C    -1.849000000    -1.115000000    -4.405000000
C    -0.843000000    -2.055000000    -4.538000000
H     0.192000000    -1.788000000    -4.340000000
C    -3.194000000    -1.590000000    -4.492000000
H    -4.015000000    -0.881000000    -4.421000000
O    -0.410000000     0.808000000    -4.801000000
H    -1.362000000     0.327000000    -2.958000000
C    -2.149000000     3.250000000    -2.989000000
C    -1.184000000     3.635000000    -4.135000000
H    -1.062000000     4.711000000    -4.275000000
H    -1.550000000     3.247000000    -5.088000000
C     0.186000000     3.020000000    -3.803000000
C     1.146000000     3.837000000    -3.174000000
H     0.975000000     4.889000000    -2.957000000
C     0.414000000     1.677000000    -4.157000000
C     1.708000000     1.120000000    -3.929000000
H     2.046000000     0.128000000    -4.217000000
C     2.641000000     1.941000000    -3.231000000
O     3.824000000     1.272000000    -2.860000000
C     4.058000000     0.922000000    -1.488000000
C     4.770000000    -0.450000000    -1.395000000
C     4.306000000    -1.493000000    -2.228000000
H     3.489000000    -1.189000000    -2.877000000
C     5.760000000    -0.705000000    -0.465000000
H     6.105000000     0.097000000     0.182000000
O     4.755000000     1.983000000    -0.815000000
H     3.129000000     0.664000000    -0.959000000
C     2.413000000     3.256000000    -2.838000000
C     3.423000000     4.082000000    -2.116000000
H     3.298000000     5.163000000    -2.202000000
H     4.465000000     3.904000000    -2.391000000
C     3.345000000     3.861000000    -0.581000000
C     4.018000000     2.811000000    -0.020000000
C     3.810000000     2.441000000     1.284000000
H     4.332000000     1.626000000     1.779000000
C     2.936000000     3.154000000     2.082000000
O     2.738000000     2.635000000     3.368000000
C     1.519000000     1.909000000     3.623000000
H     1.226000000     1.614000000     2.605000000
C     1.705000000     0.596000000     4.367000000
C     0.857000000     0.236000000     5.443000000
H     0.055000000     0.904000000     5.745000000
C     2.667000000    -0.327000000     3.937000000
H     3.277000000     0.019000000     3.107000000
C     2.673000000    -1.644000000     4.431000000
O     3.645000000    -2.600000000     3.952000000
C     1.762000000    -1.953000000     5.468000000
H     1.887000000    -2.943000000     5.898000000
C     0.863000000    -1.049000000     5.971000000
O    -0.123000000    -1.428000000     6.811000000
C    -1.434000000    -1.424000000     6.482000000
C    -1.937000000    -2.032000000     5.353000000
H    -1.309000000    -2.680000000     4.746000000
C    -2.309000000    -0.646000000     7.302000000
H    -1.886000000    -0.060000000     8.114000000
C    -3.633000000    -0.634000000     7.133000000
H    -4.308000000    -0.099000000     7.797000000
C    -4.145000000    -1.272000000     6.070000000
H    -5.204000000    -1.215000000     5.835000000
C    -3.352000000    -2.045000000     5.210000000
O    -3.970000000    -2.746000000     4.181000000
C    -4.388000000    -2.034000000     3.076000000
C    -5.142000000    -2.802000000     2.173000000
H    -5.408000000    -3.838000000     2.368000000
C    -5.444000000    -2.218000000     0.958000000
O    -6.229000000    -2.969000000     0.099000000
C    -6.374000000    -2.649000000    -1.232000000
C    -5.462000000    -3.144000000    -2.167000000
H    -4.630000000    -3.741000000    -1.801000000
C    -7.596000000    -2.084000000    -1.613000000
H    -8.356000000    -1.730000000    -0.921000000
C    -7.766000000    -1.910000000    -2.989000000
H    -8.694000000    -1.464000000    -3.338000000
C    -6.830000000    -2.333000000    -3.885000000
H    -7.007000000    -2.263000000    -4.955000000
C    -5.671000000    -2.953000000    -3.500000000
O    -4.735000000    -3.447000000    -4.405000000
C    -3.418000000    -2.945000000    -4.523000000
C    -2.391000000    -3.902000000    -4.550000000
H    -2.531000000    -4.961000000    -4.747000000
C    -1.098000000    -3.428000000    -4.651000000
O    -0.120000000    -4.383000000    -4.714000000
C     1.222000000    -4.095000000    -4.854000000
C     2.078000000    -4.115000000    -3.760000000
H     1.726000000    -4.541000000    -2.823000000
C     1.711000000    -3.798000000    -6.119000000
H     0.982000000    -3.698000000    -6.919000000
C     3.078000000    -3.474000000    -6.286000000
H     3.427000000    -3.292000000    -7.300000000
C     3.950000000    -3.443000000    -5.171000000
H     5.015000000    -3.293000000    -5.330000000
C     3.454000000    -3.810000000    -3.876000000
O     4.251000000    -3.900000000    -2.787000000
C     4.733000000    -2.795000000    -2.050000000
C     5.697000000    -3.088000000    -1.087000000
H     6.036000000    -4.104000000    -0.897000000
C     6.254000000    -2.024000000    -0.356000000
O     7.134000000    -2.321000000     0.685000000
C     6.706000000    -2.174000000     2.008000000
C     7.683000000    -2.059000000     3.054000000
H     8.723000000    -2.054000000     2.738000000
C     7.251000000    -1.952000000     4.380000000
H     7.956000000    -2.039000000     5.202000000
C     5.894000000    -2.109000000     4.673000000
H     5.648000000    -2.146000000     5.731000000
C     4.967000000    -2.338000000     3.655000000
C     5.400000000    -2.366000000     2.328000000
H     4.601000000    -2.618000000     1.636000000
C     0.588000000    -1.601000000    -0.642000000
H     1.075000000    -2.096000000    -1.478000000
C     0.355000000    -0.201000000    -0.780000000
H     0.547000000     0.243000000    -1.753000000
C    -0.222000000     0.494000000     0.228000000
H    -0.479000000     1.544000000     0.010000000
C    -0.373000000    -0.116000000     1.436000000
H    -0.756000000     0.414000000     2.305000000
C    -0.068000000    -1.477000000     1.648000000
H    -0.314000000    -1.958000000     2.591000000
C     0.376000000    -2.214000000     0.589000000
C     0.582000000    -3.685000000     0.817000000
O     0.287000000    -4.247000000     1.840000000
O     1.054000000    -4.425000000     0.011000000
O    -2.002000000    -5.335000000     5.384000000
H    -1.956000000    -5.437000000     4.434000000
H    -2.929000000    -5.455000000     5.593000000
O     4.477000000    -6.744000000    -2.092000000
H     4.016000000    -6.558000000    -1.273000000
H     4.913000000    -5.922000000    -2.314000000
O     3.445000000    -5.640000000     0.457000000
H     2.802000000    -4.933000000     0.394000000
H     3.666000000    -5.680000000     1.388000000
O     1.897000000    -4.665000000     3.803000000
H     2.639000000    -4.083000000     3.963000000
H     1.412000000    -4.246000000     3.092000000
O     0.192000000    -9.259000000     2.905000000
H     0.516000000    -8.589000000     3.507000000
H     0.284000000    -8.867000000     2.037000000
O    -2.260000000    -7.662000000     1.817000000
H    -2.659000000    -6.795000000     1.885000000
H    -1.374000000    -7.494000000     1.498000000
O     1.924000000    -9.785000000    -1.553000000
H     1.700000000    -9.993000000    -0.646000000
H     1.663000000   -10.561000000    -2.048000000
O     1.439000000    -7.725000000    -3.694000000
H     2.109000000    -7.839000000    -3.019000000
H     0.858000000    -8.478000000    -3.583000000
O     0.741000000    -6.950000000     4.568000000
H     1.206000000    -6.118000000     4.492000000
H     0.726000000    -7.132000000     5.508000000
O     3.916000000    -8.552000000     0.532000000
H     3.632000000    -8.856000000    -0.330000000
H     4.157000000    -7.636000000     0.396000000
O    -5.414000000    -7.127000000    -1.364000000
H    -4.482000000    -7.011000000    -1.549000000
H    -5.826000000    -7.175000000    -2.227000000
O    -0.130000000    -4.442000000     7.039000000
H    -0.889000000    -4.756000000     6.548000000
H     0.459000000    -5.196000000     7.077000000
O    -4.271000000    -8.454000000     3.786000000
H    -4.236000000    -9.366000000     3.500000000
H    -3.429000000    -8.086000000     3.519000000
O    -2.472000000    -4.944000000     2.605000000
H    -2.969000000    -4.126000000     2.617000000
H    -1.609000000    -4.695000000     2.275000000
O     3.965000000    -6.765000000     3.002000000
H     4.112000000    -7.711000000     3.018000000
H     3.033000000    -6.663000000     3.194000000
O     6.356000000    -5.424000000     3.436000000
H     5.572000000    -5.921000000     3.205000000
H     6.063000000    -4.813000000     4.112000000
O    -0.200000000    -5.901000000    -1.915000000
H     0.444000000    -5.457000000    -1.365000000
H     0.277000000    -6.117000000    -2.716000000
O    -2.786000000    -7.376000000    -2.011000000
H    -2.081000000    -6.732000000    -2.072000000
H    -2.354000000    -8.179000000    -1.721000000
O     0.380000000    -6.882000000     1.336000000
H     0.743000000    -6.489000000     0.543000000
H     0.387000000    -6.174000000     1.980000000
