215
-1450.46004
C    -4.382000000    -1.034000000     0.154000000
H    -4.240000000    -0.842000000    -0.906000000
C    -4.186000000    -0.048000000     1.160000000
C    -4.299000000    -0.343000000     2.483000000
H    -4.274000000     0.481000000     3.192000000
C    -3.735000000     1.320000000     0.765000000
O    -4.531000000     1.810000000    -0.348000000
H    -2.681000000     1.243000000     0.461000000
O    -3.844000000     2.275000000     1.840000000
C    -2.731000000     3.023000000     2.129000000
C    -2.026000000     2.722000000     3.253000000
H    -2.482000000     2.053000000     3.978000000
C    -0.782000000     3.254000000     3.477000000
O    -0.014000000     2.691000000     4.438000000
C    -0.238000000     4.137000000     2.457000000
C     1.052000000     4.867000000     2.572000000
H     1.086000000     5.852000000     2.104000000
C     2.018000000     3.961000000     1.860000000
C     2.353000000     4.236000000     0.537000000
H     1.987000000     5.124000000     0.028000000
H     1.359000000     5.010000000     3.611000000
C    -0.988000000     4.465000000     1.376000000
H    -0.544000000     5.194000000     0.704000000
C    -2.305000000     3.939000000     1.196000000
C    -3.146000000     4.375000000     0.016000000
H    -2.952000000     5.427000000    -0.203000000
H    -4.191000000     4.372000000     0.331000000
C    -3.027000000     3.453000000    -1.191000000
C    -2.075000000     3.739000000    -2.197000000
H    -1.416000000     4.591000000    -2.046000000
C    -3.796000000     2.267000000    -1.383000000
C    -3.581000000     1.512000000    -2.557000000
H    -4.134000000     0.577000000    -2.593000000
C    -2.671000000     1.910000000    -3.514000000
O    -2.471000000     0.854000000    -4.432000000
C    -1.188000000     0.103000000    -4.303000000
C    -1.458000000    -1.297000000    -4.737000000
C    -0.338000000    -2.169000000    -4.950000000
H     0.636000000    -1.686000000    -4.973000000
C    -2.712000000    -1.881000000    -4.755000000
H    -3.566000000    -1.289000000    -4.434000000
O    -0.095000000     0.687000000    -5.103000000
H    -1.017000000     0.186000000    -3.220000000
C    -1.844000000     2.983000000    -3.343000000
C    -0.857000000     3.397000000    -4.379000000
H    -0.779000000     4.484000000    -4.449000000
H    -1.200000000     3.012000000    -5.342000000
C     0.489000000     2.763000000    -3.982000000
C     1.281000000     3.452000000    -3.079000000
H     1.195000000     4.531000000    -2.981000000
C     0.828000000     1.467000000    -4.425000000
C     1.979000000     0.850000000    -3.924000000
H     2.295000000    -0.168000000    -4.138000000
C     2.778000000     1.562000000    -3.001000000
O     3.859000000     0.879000000    -2.485000000
C     3.762000000     0.532000000    -1.035000000
C     4.136000000    -0.910000000    -0.849000000
C     3.854000000    -1.786000000    -1.887000000
H     3.432000000    -1.456000000    -2.833000000
C     4.584000000    -1.387000000     0.351000000
H     4.781000000    -0.661000000     1.135000000
O     4.548000000     1.443000000    -0.238000000
H     2.696000000     0.573000000    -0.764000000
C     2.458000000     2.827000000    -2.589000000
C     3.357000000     3.665000000    -1.692000000
H     3.149000000     4.728000000    -1.830000000
H     4.358000000     3.358000000    -2.002000000
C     3.144000000     3.378000000    -0.223000000
C     3.789000000     2.341000000     0.466000000
C     3.531000000     2.080000000     1.828000000
H     4.036000000     1.281000000     2.365000000
C     2.626000000     2.883000000     2.523000000
O     2.298000000     2.619000000     3.826000000
C     1.032000000     1.865000000     3.939000000
H     0.731000000     1.531000000     2.935000000
C     1.292000000     0.661000000     4.840000000
C     0.168000000     0.021000000     5.381000000
H    -0.852000000     0.354000000     5.206000000
C     2.566000000     0.210000000     5.041000000
H     3.477000000     0.668000000     4.665000000
C     2.782000000    -0.939000000     5.845000000
O     4.044000000    -1.559000000     6.025000000
C     1.683000000    -1.571000000     6.402000000
H     1.896000000    -2.496000000     6.931000000
C     0.375000000    -1.098000000     6.182000000
O    -0.750000000    -1.825000000     6.548000000
C    -2.055000000    -1.395000000     6.472000000
C    -2.801000000    -1.980000000     5.451000000
H    -2.327000000    -2.722000000     4.814000000
C    -2.487000000    -0.228000000     7.174000000
H    -1.857000000     0.282000000     7.899000000
C    -3.712000000     0.345000000     6.796000000
H    -4.089000000     1.145000000     7.428000000
C    -4.482000000    -0.310000000     5.812000000
H    -5.373000000     0.208000000     5.467000000
C    -4.036000000    -1.461000000     5.197000000
O    -4.764000000    -1.968000000     4.167000000
C    -4.643000000    -1.674000000     2.832000000
C    -4.809000000    -2.684000000     1.852000000
H    -4.901000000    -3.722000000     2.158000000
C    -4.689000000    -2.338000000     0.504000000
O    -4.933000000    -3.319000000    -0.411000000
C    -5.331000000    -3.024000000    -1.690000000
C    -4.693000000    -3.626000000    -2.765000000
H    -3.702000000    -4.067000000    -2.691000000
C    -6.535000000    -2.264000000    -1.986000000
H    -7.064000000    -1.764000000    -1.179000000
C    -6.886000000    -1.964000000    -3.325000000
H    -7.739000000    -1.337000000    -3.572000000
C    -6.110000000    -2.595000000    -4.361000000
H    -6.265000000    -2.342000000    -5.407000000
C    -5.118000000    -3.434000000    -4.082000000
O    -4.257000000    -3.773000000    -5.096000000
C    -3.015000000    -3.146000000    -5.215000000
C    -1.945000000    -3.930000000    -5.585000000
H    -2.137000000    -4.941000000    -5.935000000
C    -0.589000000    -3.446000000    -5.502000000
O     0.462000000    -4.326000000    -5.823000000
C     1.748000000    -4.030000000    -5.557000000
C     2.301000000    -4.301000000    -4.352000000
H     1.678000000    -4.802000000    -3.616000000
C     2.407000000    -3.146000000    -6.438000000
H     1.932000000    -2.823000000    -7.361000000
C     3.687000000    -2.685000000    -6.082000000
H     4.170000000    -2.099000000    -6.860000000
C     4.319000000    -3.146000000    -4.944000000
H     5.264000000    -2.717000000    -4.622000000
C     3.581000000    -3.853000000    -4.000000000
O     4.097000000    -4.097000000    -2.765000000
C     4.227000000    -3.144000000    -1.705000000
C     4.781000000    -3.585000000    -0.501000000
H     5.027000000    -4.644000000    -0.481000000
C     4.997000000    -2.676000000     0.528000000
O     5.453000000    -3.147000000     1.751000000
C     5.699000000    -2.343000000     2.836000000
C     6.893000000    -1.596000000     2.953000000
H     7.673000000    -1.774000000     2.217000000
C     7.122000000    -0.836000000     4.082000000
H     8.007000000    -0.216000000     4.201000000
C     6.212000000    -0.913000000     5.167000000
H     6.386000000    -0.293000000     6.043000000
C     5.041000000    -1.620000000     5.003000000
C     4.835000000    -2.362000000     3.901000000
H     3.966000000    -3.011000000     3.958000000
C     0.464000000    -2.050000000    -0.880000000
H     1.069000000    -2.640000000    -1.564000000
C     0.305000000    -0.669000000    -0.956000000
H     0.569000000    -0.163000000    -1.881000000
C    -0.326000000     0.006000000     0.097000000
H    -0.485000000     1.056000000     0.047000000
C    -0.690000000    -0.670000000     1.220000000
H    -1.274000000    -0.238000000     2.028000000
C    -0.582000000    -2.018000000     1.300000000
H    -0.898000000    -2.505000000     2.220000000
C     0.031000000    -2.785000000     0.274000000
C     0.152000000    -4.276000000     0.405000000
O    -0.537000000    -4.867000000     1.219000000
O     0.947000000    -4.846000000    -0.294000000
O    -1.301000000    -7.209000000    -4.008000000
H    -1.242000000    -8.163000000    -3.956000000
H    -0.606000000    -6.895000000    -3.429000000
O    -4.093000000    -8.683000000     0.936000000
H    -3.711000000    -8.843000000     1.799000000
H    -3.359000000    -8.774000000     0.329000000
O    -1.897000000    -7.683000000    -0.837000000
H    -2.195000000    -6.788000000    -0.676000000
H    -1.079000000    -7.580000000    -1.323000000
O     4.368000000    -7.378000000    -3.156000000
H     4.932000000    -6.656000000    -2.877000000
H     4.948000000    -8.138000000    -3.185000000
O     3.138000000    -6.423000000    -0.312000000
H     2.518000000    -5.708000000    -0.171000000
H     3.529000000    -6.237000000    -1.166000000
O     1.649000000    -6.849000000     4.569000000
H     1.644000000    -6.370000000     3.740000000
H     0.860000000    -6.552000000     5.023000000
O     1.204000000    -6.716000000     1.860000000
H     0.617000000    -5.996000000     1.626000000
H     1.899000000    -6.681000000     1.203000000
O     3.719000000    -8.998000000    -0.091000000
H     4.676000000    -9.016000000    -0.096000000
H     3.497000000    -8.070000000    -0.171000000
O     0.515000000    -9.269000000     2.356000000
H     1.377000000    -9.514000000     2.693000000
H     0.519000000    -8.311000000     2.363000000
O    -1.163000000   -10.082000000     0.382000000
H    -1.355000000    -9.217000000     0.021000000
H    -0.739000000    -9.903000000     1.222000000
O    -0.785000000    -5.832000000     5.191000000
H    -1.366000000    -6.366000000     5.733000000
H    -0.651000000    -5.032000000     5.699000000
O    -0.861000000    -9.633000000    -3.214000000
H    -0.822000000   -10.587000000    -3.276000000
H     0.013000000    -9.376000000    -2.919000000
O    -4.659000000    -7.832000000    -2.511000000
H    -4.466000000    -8.631000000    -3.001000000
H    -3.871000000    -7.674000000    -1.990000000
O     1.399000000    -9.492000000    -1.412000000
H     2.266000000    -9.526000000    -1.008000000
H     0.798000000    -9.750000000    -0.713000000
O    -2.699000000    -5.165000000    -0.265000000
H    -3.121000000    -4.338000000    -0.031000000
H    -1.937000000    -5.217000000     0.312000000
O    -2.751000000    -5.635000000     3.459000000
H    -2.462000000    -5.480000000     2.560000000
H    -1.942000000    -5.802000000     3.944000000
O     5.093000000    -6.835000000     1.873000000
H     4.320000000    -6.356000000     1.574000000
H     5.675000000    -6.849000000     1.114000000
O     0.353000000    -6.762000000    -1.960000000
H     0.526000000    -6.025000000    -1.374000000
H     1.060000000    -7.382000000    -1.780000000
O    -5.327000000    -6.390000000     0.301000000
H    -5.063000000    -7.259000000     0.603000000
H    -4.541000000    -6.033000000    -0.114000000
