215
-1454.20118
C    -4.568000000    -1.143000000     0.519000000
H    -4.402000000    -0.934000000    -0.534000000
C    -4.371000000    -0.106000000     1.448000000
C    -4.636000000    -0.318000000     2.800000000
H    -4.495000000     0.493000000     3.509000000
C    -3.742000000     1.223000000     1.032000000
O    -4.352000000     1.883000000    -0.087000000
H    -2.700000000     0.988000000     0.770000000
O    -3.794000000     2.250000000     2.126000000
C    -2.677000000     3.065000000     2.257000000
C    -1.797000000     2.669000000     3.307000000
H    -2.159000000     1.918000000     4.005000000
C    -0.623000000     3.322000000     3.504000000
O     0.147000000     2.741000000     4.463000000
C    -0.241000000     4.343000000     2.627000000
C     1.143000000     4.923000000     2.611000000
H     1.102000000     5.938000000     2.211000000
C     2.110000000     4.050000000     1.824000000
C     2.364000000     4.297000000     0.462000000
H     1.903000000     5.168000000     0.002000000
H     1.306000000     5.028000000     3.685000000
C    -1.080000000     4.770000000     1.572000000
H    -0.701000000     5.451000000     0.814000000
C    -2.348000000     4.108000000     1.391000000
C    -3.271000000     4.510000000     0.256000000
H    -2.875000000     5.486000000    -0.033000000
H    -4.338000000     4.489000000     0.489000000
C    -3.082000000     3.691000000    -0.994000000
C    -2.213000000     4.213000000    -2.017000000
H    -1.649000000     5.131000000    -1.874000000
C    -3.623000000     2.440000000    -1.114000000
C    -3.437000000     1.674000000    -2.334000000
H    -3.872000000     0.701000000    -2.548000000
C    -2.508000000     2.141000000    -3.275000000
O    -2.302000000     1.263000000    -4.336000000
C    -0.993000000     0.575000000    -4.377000000
C    -1.046000000    -0.879000000    -4.817000000
C    -0.098000000    -1.386000000    -5.718000000
H     0.614000000    -0.703000000    -6.174000000
C    -2.077000000    -1.679000000    -4.425000000
H    -2.905000000    -1.208000000    -3.901000000
O    -0.070000000     1.343000000    -5.115000000
H    -0.671000000     0.665000000    -3.329000000
C    -1.878000000     3.394000000    -3.121000000
C    -0.829000000     3.863000000    -4.149000000
H    -0.707000000     4.948000000    -4.133000000
H    -1.155000000     3.662000000    -5.172000000
C     0.554000000     3.188000000    -3.906000000
C     1.483000000     3.734000000    -2.968000000
H     1.245000000     4.681000000    -2.492000000
C     0.884000000     1.952000000    -4.420000000
C     2.024000000     1.272000000    -4.037000000
H     2.193000000     0.256000000    -4.384000000
C     2.957000000     1.836000000    -3.188000000
O     3.905000000     1.055000000    -2.647000000
C     3.782000000     0.644000000    -1.297000000
C     4.175000000    -0.836000000    -1.077000000
C     4.000000000    -1.796000000    -2.132000000
H     3.814000000    -1.488000000    -3.157000000
C     4.431000000    -1.371000000     0.227000000
H     4.635000000    -0.672000000     1.035000000
O     4.559000000     1.491000000    -0.402000000
H     2.747000000     0.624000000    -0.924000000
C     2.661000000     3.092000000    -2.662000000
C     3.597000000     3.709000000    -1.672000000
H     3.655000000     4.799000000    -1.707000000
H     4.632000000     3.476000000    -1.931000000
C     3.200000000     3.421000000    -0.241000000
C     3.885000000     2.378000000     0.385000000
C     3.385000000     2.041000000     1.628000000
H     3.687000000     1.072000000     2.017000000
C     2.605000000     2.869000000     2.394000000
O     2.388000000     2.448000000     3.639000000
C     1.165000000     1.824000000     3.938000000
H     0.841000000     1.331000000     3.009000000
C     1.273000000     0.659000000     4.876000000
C     0.132000000    -0.080000000     5.147000000
H    -0.792000000     0.187000000     4.641000000
C     2.514000000     0.052000000     5.144000000
H     3.426000000     0.529000000     4.793000000
C     2.545000000    -1.141000000     5.876000000
O     3.660000000    -1.828000000     6.080000000
C     1.346000000    -1.805000000     6.237000000
H     1.207000000    -2.723000000     6.802000000
C     0.170000000    -1.187000000     5.920000000
O    -0.975000000    -1.944000000     6.092000000
C    -2.213000000    -1.416000000     6.100000000
C    -3.247000000    -1.974000000     5.366000000
H    -2.900000000    -2.735000000     4.673000000
C    -2.469000000    -0.330000000     6.956000000
H    -1.655000000     0.003000000     7.595000000
C    -3.737000000     0.166000000     7.004000000
H    -3.862000000     1.068000000     7.597000000
C    -4.728000000    -0.338000000     6.202000000
H    -5.656000000     0.228000000     6.221000000
C    -4.540000000    -1.388000000     5.351000000
O    -5.471000000    -1.807000000     4.458000000
C    -5.229000000    -1.506000000     3.165000000
C    -5.598000000    -2.472000000     2.160000000
H    -6.063000000    -3.436000000     2.353000000
C    -5.208000000    -2.275000000     0.873000000
O    -5.577000000    -3.237000000    -0.083000000
C    -5.500000000    -3.121000000    -1.478000000
C    -4.427000000    -3.664000000    -2.145000000
H    -3.553000000    -4.013000000    -1.601000000
C    -6.505000000    -2.426000000    -2.169000000
H    -7.354000000    -2.051000000    -1.603000000
C    -6.444000000    -2.362000000    -3.532000000
H    -7.264000000    -1.820000000    -3.996000000
C    -5.329000000    -2.822000000    -4.223000000
H    -5.204000000    -2.747000000    -5.300000000
C    -4.314000000    -3.514000000    -3.582000000
O    -3.173000000    -3.898000000    -4.319000000
C    -2.127000000    -3.065000000    -4.693000000
C    -1.076000000    -3.647000000    -5.399000000
H    -0.991000000    -4.684000000    -5.714000000
C    -0.145000000    -2.779000000    -5.998000000
O     0.872000000    -3.407000000    -6.750000000
C     2.094000000    -3.680000000    -6.176000000
C     2.292000000    -3.765000000    -4.799000000
H     1.435000000    -3.756000000    -4.131000000
C     3.155000000    -3.915000000    -7.032000000
H     3.055000000    -3.856000000    -8.113000000
C     4.464000000    -3.987000000    -6.503000000
H     5.273000000    -4.195000000    -7.199000000
C     4.649000000    -4.066000000    -5.144000000
H     5.658000000    -4.206000000    -4.765000000
C     3.597000000    -3.894000000    -4.247000000
O     3.848000000    -4.125000000    -2.913000000
C     4.040000000    -3.174000000    -1.910000000
C     4.154000000    -3.593000000    -0.592000000
H     3.945000000    -4.621000000    -0.306000000
C     4.432000000    -2.782000000     0.423000000
O     4.427000000    -3.328000000     1.660000000
C     4.929000000    -2.700000000     2.809000000
C     6.205000000    -2.215000000     2.842000000
H     6.859000000    -2.302000000     1.978000000
C     6.690000000    -1.581000000     4.003000000
H     7.699000000    -1.176000000     4.020000000
C     5.793000000    -1.380000000     5.054000000
H     6.168000000    -0.835000000     5.916000000
C     4.554000000    -1.981000000     5.048000000
C     4.097000000    -2.575000000     3.911000000
H     3.128000000    -3.069000000     3.895000000
C     0.208000000    -2.090000000    -1.108000000
H     0.365000000    -2.830000000    -1.888000000
C     0.313000000    -0.771000000    -1.444000000
H     0.564000000    -0.496000000    -2.465000000
C     0.084000000     0.182000000    -0.444000000
H     0.256000000     1.216000000    -0.578000000
C    -0.161000000    -0.294000000     0.839000000
H    -0.335000000     0.422000000     1.637000000
C    -0.453000000    -1.589000000     1.116000000
H    -0.862000000    -1.863000000     2.085000000
C    -0.174000000    -2.570000000     0.144000000
C    -0.280000000    -4.024000000     0.402000000
O    -0.914000000    -4.488000000     1.360000000
O    -0.014000000    -4.879000000    -0.471000000
O    -3.148000000    -6.602000000    -5.037000000
H    -3.146000000    -5.887000000    -4.400000000
H    -3.315000000    -7.387000000    -4.516000000
O    -4.364000000    -7.593000000     1.588000000
H    -3.792000000    -8.027000000     2.220000000
H    -3.771000000    -7.081000000     1.039000000
O    -1.752000000    -6.021000000    -2.362000000
H    -1.336000000    -6.307000000    -3.175000000
H    -1.093000000    -5.473000000    -1.936000000
O     0.589000000    -7.251000000     0.735000000
H     0.391000000    -6.358000000     0.455000000
H     1.194000000    -7.582000000     0.071000000
O     1.926000000    -5.147000000     5.621000000
H     1.933000000    -5.268000000     4.671000000
H     1.000000000    -5.181000000     5.861000000
O     1.766000000    -5.082000000     2.978000000
H     1.145000000    -4.361000000     2.872000000
H     1.399000000    -5.793000000     2.454000000
O     2.031000000    -8.597000000    -1.196000000
H     2.886000000    -8.469000000    -1.607000000
H     1.402000000    -8.294000000    -1.851000000
O    -0.719000000    -7.555000000     3.239000000
H     0.096000000    -7.940000000     3.562000000
H    -0.583000000    -7.461000000     2.296000000
O    -5.420000000    -6.183000000     4.041000000
H    -4.775000000    -6.315000000     3.346000000
H    -5.940000000    -6.987000000     4.040000000
O     4.315000000    -7.499000000    -2.422000000
H     4.444000000    -7.007000000    -3.233000000
H     5.027000000    -7.211000000    -1.850000000
O    -0.562000000    -7.998000000     6.428000000
H    -0.428000000    -7.127000000     6.053000000
H     0.049000000    -8.560000000     5.952000000
O     1.565000000    -9.841000000     2.196000000
H     2.376000000   -10.188000000     1.826000000
H     1.069000000    -9.531000000     1.438000000
O    -3.375000000    -8.566000000     3.939000000
H    -3.395000000    -8.970000000     4.807000000
H    -2.471000000    -8.271000000     3.833000000
O    -1.842000000    -9.213000000     0.226000000
H    -1.810000000    -8.259000000     0.294000000
H    -0.954000000    -9.466000000    -0.026000000
O    -0.223000000    -6.864000000    -4.322000000
H     0.418000000    -6.405000000    -3.778000000
H     0.284000000    -7.187000000    -5.067000000
O    -2.240000000    -6.446000000     0.125000000
H    -2.091000000    -6.316000000    -0.811000000
H    -1.683000000    -5.794000000     0.550000000
O    -2.069000000    -4.975000000     3.940000000
H    -1.780000000    -4.770000000     3.050000000
H    -2.065000000    -5.931000000     3.979000000
O    -0.676000000    -4.897000000     6.178000000
H    -1.068000000    -4.643000000     5.343000000
H    -0.971000000    -4.227000000     6.795000000
O     1.379000000    -5.699000000    -2.449000000
H     0.902000000    -5.375000000    -1.685000000
H     2.278000000    -5.399000000    -2.314000000
