215
-1464.24007
C    -4.490000000    -1.111000000    -0.109000000
H    -4.331000000    -0.919000000    -1.167000000
C    -4.353000000    -0.044000000     0.789000000
C    -4.442000000    -0.310000000     2.171000000
H    -4.268000000     0.492000000     2.884000000
C    -3.862000000     1.218000000     0.289000000
O    -4.445000000     1.599000000    -0.953000000
H    -2.807000000     1.129000000    -0.008000000
O    -4.006000000     2.318000000     1.261000000
C    -2.929000000     3.058000000     1.510000000
C    -2.181000000     2.820000000     2.657000000
H    -2.597000000     2.137000000     3.393000000
C    -1.015000000     3.462000000     2.848000000
O    -0.353000000     3.089000000     3.962000000
C    -0.551000000     4.457000000     1.959000000
C     0.744000000     5.102000000     2.241000000
H     0.829000000     6.115000000     1.843000000
C     1.865000000     4.283000000     1.770000000
C     2.218000000     4.389000000     0.459000000
H     1.810000000     5.123000000    -0.231000000
H     0.797000000     5.281000000     3.317000000
C    -1.260000000     4.584000000     0.731000000
H    -0.846000000     5.168000000    -0.087000000
C    -2.531000000     4.038000000     0.588000000
C    -3.323000000     4.237000000    -0.696000000
H    -3.274000000     5.296000000    -0.959000000
H    -4.359000000     4.041000000    -0.413000000
C    -2.965000000     3.303000000    -1.878000000
C    -1.936000000     3.644000000    -2.788000000
H    -1.415000000     4.597000000    -2.750000000
C    -3.712000000     2.128000000    -2.043000000
C    -3.347000000     1.226000000    -3.018000000
H    -3.748000000     0.216000000    -3.007000000
C    -2.329000000     1.657000000    -3.942000000
O    -1.898000000     0.760000000    -4.903000000
C    -0.748000000    -0.057000000    -4.544000000
C    -0.926000000    -1.597000000    -4.881000000
C     0.198000000    -2.372000000    -5.238000000
H     1.133000000    -1.840000000    -5.397000000
C    -2.148000000    -2.222000000    -4.722000000
H    -3.014000000    -1.638000000    -4.422000000
O     0.450000000     0.486000000    -5.238000000
H    -0.615000000    -0.040000000    -3.452000000
C    -1.593000000     2.848000000    -3.817000000
C    -0.494000000     3.156000000    -4.755000000
H    -0.312000000     4.221000000    -4.919000000
H    -0.681000000     2.702000000    -5.730000000
C     0.825000000     2.604000000    -4.154000000
C     1.598000000     3.356000000    -3.228000000
H     1.200000000     4.345000000    -3.014000000
C     1.219000000     1.274000000    -4.408000000
C     2.238000000     0.652000000    -3.652000000
H     2.356000000    -0.427000000    -3.715000000
C     2.985000000     1.439000000    -2.743000000
O     3.942000000     0.768000000    -1.996000000
C     3.704000000     0.534000000    -0.605000000
C     4.209000000    -0.861000000    -0.213000000
C     4.022000000    -1.903000000    -1.141000000
H     3.612000000    -1.676000000    -2.121000000
C     4.709000000    -1.200000000     1.037000000
H     4.803000000    -0.477000000     1.843000000
O     4.444000000     1.520000000     0.177000000
H     2.622000000     0.614000000    -0.423000000
C     2.661000000     2.792000000    -2.512000000
C     3.495000000     3.645000000    -1.581000000
H     3.320000000     4.673000000    -1.906000000
H     4.561000000     3.414000000    -1.634000000
C     3.119000000     3.469000000    -0.120000000
C     3.742000000     2.501000000     0.716000000
C     3.475000000     2.407000000     2.074000000
H     3.930000000     1.620000000     2.671000000
C     2.460000000     3.266000000     2.571000000
O     1.986000000     2.978000000     3.825000000
C     0.799000000     2.201000000     3.779000000
H     0.778000000     1.659000000     2.823000000
C     0.948000000     1.094000000     4.846000000
C    -0.235000000     0.610000000     5.445000000
H    -1.201000000     1.063000000     5.236000000
C     2.168000000     0.375000000     5.036000000
H     3.059000000     0.929000000     4.750000000
C     2.202000000    -0.776000000     5.787000000
O     3.344000000    -1.572000000     5.949000000
C     1.076000000    -1.134000000     6.457000000
H     1.055000000    -2.037000000     7.062000000
C    -0.184000000    -0.478000000     6.257000000
O    -1.301000000    -0.986000000     6.868000000
C    -2.617000000    -0.792000000     6.429000000
C    -3.221000000    -1.518000000     5.403000000
H    -2.656000000    -2.329000000     4.950000000
C    -3.314000000     0.257000000     6.989000000
H    -2.844000000     0.807000000     7.799000000
C    -4.591000000     0.637000000     6.503000000
H    -5.036000000     1.475000000     7.033000000
C    -5.218000000    -0.135000000     5.490000000
H    -6.230000000    -0.009000000     5.115000000
C    -4.459000000    -1.164000000     4.933000000
O    -5.019000000    -1.865000000     3.941000000
C    -4.967000000    -1.545000000     2.629000000
C    -5.132000000    -2.606000000     1.733000000
H    -5.463000000    -3.610000000     1.987000000
C    -4.882000000    -2.360000000     0.386000000
O    -4.953000000    -3.470000000    -0.454000000
C    -5.191000000    -3.407000000    -1.755000000
C    -4.330000000    -3.977000000    -2.754000000
H    -3.412000000    -4.452000000    -2.417000000
C    -6.343000000    -2.757000000    -2.289000000
H    -7.063000000    -2.390000000    -1.562000000
C    -6.595000000    -2.645000000    -3.677000000
H    -7.413000000    -2.044000000    -4.066000000
C    -5.701000000    -3.244000000    -4.592000000
H    -5.921000000    -3.228000000    -5.656000000
C    -4.566000000    -3.953000000    -4.126000000
O    -3.536000000    -4.265000000    -5.026000000
C    -2.256000000    -3.600000000    -4.956000000
C    -1.125000000    -4.371000000    -5.225000000
H    -1.190000000    -5.448000000    -5.356000000
C     0.088000000    -3.761000000    -5.442000000
O     1.189000000    -4.502000000    -5.778000000
C     2.312000000    -4.125000000    -5.137000000
C     2.618000000    -4.536000000    -3.822000000
H     1.862000000    -5.106000000    -3.288000000
C     3.240000000    -3.471000000    -5.905000000
H     3.174000000    -3.234000000    -6.963000000
C     4.514000000    -3.226000000    -5.389000000
H     5.181000000    -2.685000000    -6.056000000
C     4.721000000    -3.469000000    -4.008000000
H     5.637000000    -3.094000000    -3.559000000
C     3.784000000    -4.097000000    -3.195000000
O     4.044000000    -4.296000000    -1.810000000
C     4.319000000    -3.239000000    -0.912000000
C     4.942000000    -3.503000000     0.314000000
H     5.214000000    -4.541000000     0.487000000
C     5.185000000    -2.503000000     1.243000000
O     6.056000000    -2.823000000     2.284000000
C     5.913000000    -2.038000000     3.412000000
C     6.827000000    -1.072000000     3.704000000
H     7.654000000    -0.937000000     3.011000000
C     6.483000000    -0.215000000     4.734000000
H     7.102000000     0.614000000     5.066000000
C     5.351000000    -0.389000000     5.521000000
H     5.088000000     0.254000000     6.357000000
C     4.419000000    -1.363000000     5.171000000
C     4.689000000    -2.223000000     4.131000000
H     3.941000000    -2.898000000     3.724000000
C    -0.019000000    -1.983000000    -0.471000000
H     0.444000000    -2.441000000    -1.341000000
C    -0.133000000    -0.577000000    -0.431000000
H     0.125000000     0.079000000    -1.259000000
C    -0.632000000     0.027000000     0.700000000
H    -0.641000000     1.113000000     0.789000000
C    -0.835000000    -0.768000000     1.867000000
H    -0.992000000    -0.261000000     2.816000000
C    -0.789000000    -2.142000000     1.808000000
H    -0.987000000    -2.704000000     2.718000000
C    -0.408000000    -2.763000000     0.651000000
C    -0.256000000    -4.271000000     0.686000000
O    -0.794000000    -4.891000000     1.594000000
O     0.543000000    -4.794000000    -0.046000000
O    -2.217000000    -8.617000000    -4.970000000
H    -1.656000000    -9.367000000    -4.773000000
H    -2.255000000    -8.124000000    -4.151000000
O    -4.978000000    -9.002000000     1.409000000
H    -4.342000000    -8.906000000     2.118000000
H    -4.942000000    -9.931000000     1.180000000
O    -2.624000000    -7.340000000    -2.521000000
H    -3.006000000    -7.125000000    -1.670000000
H    -1.684000000    -7.203000000    -2.404000000
O     2.905000000    -5.801000000     0.482000000
H     2.038000000    -5.499000000     0.210000000
H     3.459000000    -5.664000000    -0.286000000
O     4.093000000    -6.271000000     5.309000000
H     4.403000000    -6.124000000     4.416000000
H     3.178000000    -5.990000000     5.294000000
O     1.514000000    -5.841000000     5.185000000
H     1.381000000    -6.101000000     4.274000000
H     0.637000000    -5.855000000     5.568000000
O     1.145000000    -6.603000000     2.498000000
H     0.401000000    -6.042000000     2.281000000
H     1.845000000    -6.310000000     1.913000000
O     3.508000000    -9.084000000    -0.088000000
H     4.383000000    -9.171000000    -0.464000000
H     3.425000000    -8.152000000     0.114000000
O    -0.858000000    -8.405000000     2.926000000
H    -0.262000000    -7.658000000     2.864000000
H    -0.375000000    -9.055000000     3.435000000
O    -1.017000000    -9.125000000    -0.160000000
H    -1.747000000    -9.321000000    -0.748000000
H    -1.433000000    -8.791000000     0.635000000
O    -1.116000000    -5.170000000     6.335000000
H    -1.387000000    -4.996000000     5.434000000
H    -1.496000000    -4.453000000     6.843000000
O    -3.341000000    -8.966000000     3.623000000
H    -2.501000000    -8.766000000     3.211000000
H    -3.131000000    -9.617000000     4.293000000
O     1.374000000    -8.052000000    -4.404000000
H     2.314000000    -8.231000000    -4.420000000
H     1.147000000    -8.047000000    -3.474000000
O     1.457000000    -9.526000000    -1.859000000
H     2.268000000    -9.535000000    -1.349000000
H     0.808000000    -9.143000000    -1.269000000
O    -2.551000000    -6.482000000     0.124000000
H    -3.117000000    -6.524000000     0.894000000
H    -1.888000000    -5.830000000     0.349000000
O    -2.338000000    -4.886000000     3.975000000
H    -3.097000000    -4.353000000     3.738000000
H    -1.870000000    -5.014000000     3.150000000
O     4.907000000    -5.510000000     2.957000000
H     4.224000000    -5.344000000     2.308000000
H     5.692000000    -5.106000000     2.587000000
O    -0.047000000    -6.894000000    -1.715000000
H     0.263000000    -6.129000000    -1.230000000
H    -0.479000000    -7.436000000    -1.055000000
O    -6.144000000    -8.003000000    -1.229000000
H    -5.766000000    -8.362000000    -0.426000000
H    -5.411000000    -7.572000000    -1.667000000
