215
-1467.65004
C    -4.864000000    -1.046000000     1.084000000
H    -5.364000000    -0.560000000     0.250000000
C    -4.185000000    -0.284000000     2.129000000
C    -3.752000000    -0.922000000     3.347000000
H    -3.244000000    -0.475000000     4.197000000
C    -3.645000000     1.068000000     1.830000000
O    -4.467000000     1.590000000     0.706000000
H    -2.627000000     1.004000000     1.417000000
O    -3.559000000     2.020000000     2.906000000
C    -2.539000000     2.867000000     2.975000000
C    -1.537000000     2.511000000     3.863000000
H    -1.745000000     1.661000000     4.507000000
C    -0.298000000     3.108000000     3.777000000
O     0.804000000     2.567000000     4.415000000
C    -0.098000000     4.188000000     2.965000000
C     1.259000000     4.783000000     2.725000000
H     1.191000000     5.857000000     2.542000000
C     2.116000000     4.056000000     1.651000000
C     2.204000000     4.551000000     0.338000000
H     1.459000000     5.305000000     0.096000000
H     1.772000000     4.768000000     3.689000000
C    -1.173000000     4.670000000     2.224000000
H    -1.122000000     5.613000000     1.686000000
C    -2.347000000     3.940000000     2.121000000
C    -3.482000000     4.383000000     1.107000000
H    -3.481000000     5.467000000     0.976000000
H    -4.464000000     4.158000000     1.528000000
C    -3.359000000     3.612000000    -0.209000000
C    -2.676000000     4.136000000    -1.315000000
H    -2.294000000     5.153000000    -1.289000000
C    -3.873000000     2.298000000    -0.314000000
C    -3.745000000     1.566000000    -1.494000000
H    -4.112000000     0.551000000    -1.626000000
C    -3.019000000     2.055000000    -2.588000000
O    -2.836000000     1.319000000    -3.719000000
C    -1.621000000     0.620000000    -4.024000000
C    -1.789000000    -0.772000000    -4.357000000
C    -0.651000000    -1.648000000    -4.579000000
H     0.309000000    -1.139000000    -4.624000000
C    -3.092000000    -1.326000000    -4.438000000
H    -3.964000000    -0.738000000    -4.164000000
O    -0.889000000     1.397000000    -5.016000000
H    -1.000000000     0.545000000    -3.119000000
C    -2.506000000     3.353000000    -2.488000000
C    -1.661000000     3.948000000    -3.654000000
H    -1.659000000     5.039000000    -3.710000000
H    -2.191000000     3.712000000    -4.579000000
C    -0.270000000     3.450000000    -3.764000000
C     0.768000000     4.209000000    -3.178000000
H     0.480000000     5.168000000    -2.756000000
C     0.075000000     2.224000000    -4.374000000
C     1.389000000     1.743000000    -4.224000000
H     1.651000000     0.743000000    -4.559000000
C     2.329000000     2.453000000    -3.495000000
O     3.386000000     1.614000000    -3.266000000
C     3.759000000     1.083000000    -1.957000000
C     4.541000000    -0.273000000    -2.120000000
C     4.277000000    -1.092000000    -3.188000000
H     3.694000000    -0.676000000    -4.005000000
C     5.330000000    -0.716000000    -1.011000000
H     5.401000000    -0.132000000    -0.098000000
O     4.519000000     2.162000000    -1.245000000
H     2.842000000     0.858000000    -1.393000000
C     2.022000000     3.705000000    -2.922000000
C     3.047000000     4.402000000    -2.059000000
H     2.903000000     5.479000000    -2.171000000
H     4.034000000     4.293000000    -2.513000000
C     2.957000000     3.907000000    -0.662000000
C     3.756000000     2.775000000    -0.274000000
C     3.759000000     2.320000000     1.091000000
H     4.356000000     1.448000000     1.343000000
C     2.889000000     2.937000000     2.013000000
O     2.846000000     2.387000000     3.232000000
C     1.662000000     1.644000000     3.682000000
H     1.049000000     1.310000000     2.833000000
C     1.826000000     0.298000000     4.466000000
C     1.048000000    -0.067000000     5.534000000
H     0.432000000     0.689000000     6.014000000
C     2.631000000    -0.658000000     3.840000000
H     3.277000000    -0.349000000     3.022000000
C     2.608000000    -1.954000000     4.283000000
O     3.490000000    -2.917000000     3.748000000
C     1.782000000    -2.266000000     5.374000000
H     1.696000000    -3.280000000     5.754000000
C     1.038000000    -1.328000000     5.989000000
O     0.329000000    -1.646000000     7.125000000
C    -1.004000000    -1.919000000     7.063000000
C    -1.743000000    -2.143000000     5.840000000
H    -1.205000000    -2.043000000     4.901000000
C    -1.856000000    -1.841000000     8.210000000
H    -1.361000000    -1.581000000     9.142000000
C    -3.196000000    -2.150000000     8.198000000
H    -3.734000000    -2.185000000     9.141000000
C    -3.813000000    -2.454000000     7.001000000
H    -4.882000000    -2.646000000     6.963000000
C    -3.112000000    -2.336000000     5.876000000
O    -3.670000000    -2.875000000     4.758000000
C    -4.013000000    -2.273000000     3.579000000
C    -4.592000000    -3.016000000     2.544000000
H    -4.820000000    -4.057000000     2.757000000
C    -4.992000000    -2.441000000     1.267000000
O    -5.539000000    -3.268000000     0.280000000
C    -5.831000000    -2.803000000    -1.009000000
C    -4.999000000    -3.188000000    -2.039000000
H    -4.235000000    -3.929000000    -1.817000000
C    -6.972000000    -2.073000000    -1.348000000
H    -7.597000000    -1.832000000    -0.493000000
C    -7.248000000    -1.760000000    -2.682000000
H    -8.214000000    -1.370000000    -2.992000000
C    -6.371000000    -2.114000000    -3.689000000
H    -6.652000000    -1.869000000    -4.710000000
C    -5.261000000    -2.879000000    -3.360000000
O    -4.467000000    -3.261000000    -4.389000000
C    -3.242000000    -2.684000000    -4.658000000
C    -2.134000000    -3.502000000    -4.840000000
H    -2.274000000    -4.580000000    -4.831000000
C    -0.829000000    -3.005000000    -4.861000000
O     0.208000000    -3.884000000    -5.018000000
C     1.443000000    -3.527000000    -5.539000000
C     2.531000000    -3.245000000    -4.739000000
H     2.296000000    -3.162000000    -3.681000000
C     1.584000000    -3.819000000    -6.907000000
H     0.771000000    -4.238000000    -7.493000000
C     2.810000000    -3.532000000    -7.524000000
H     2.776000000    -3.742000000    -8.590000000
C     3.907000000    -3.241000000    -6.721000000
H     4.924000000    -3.067000000    -7.063000000
C     3.752000000    -3.061000000    -5.307000000
O     4.864000000    -3.058000000    -4.497000000
C     4.955000000    -2.292000000    -3.328000000
C     5.839000000    -2.658000000    -2.327000000
H     6.399000000    -3.587000000    -2.409000000
C     5.905000000    -1.988000000    -1.073000000
O     6.639000000    -2.460000000    -0.002000000
C     6.347000000    -2.402000000     1.347000000
C     7.359000000    -1.952000000     2.220000000
H     8.311000000    -1.752000000     1.737000000
C     7.056000000    -1.840000000     3.584000000
H     7.916000000    -1.563000000     4.189000000
C     5.790000000    -2.069000000     4.061000000
H     5.619000000    -1.854000000     5.113000000
C     4.753000000    -2.579000000     3.257000000
C     5.037000000    -2.707000000     1.878000000
H     4.280000000    -3.099000000     1.204000000
C     0.448000000    -0.964000000    -0.819000000
H     0.787000000    -1.140000000    -1.837000000
C     0.221000000     0.332000000    -0.387000000
H     0.513000000     1.147000000    -1.044000000
C    -0.271000000     0.614000000     0.863000000
H    -0.418000000     1.643000000     1.048000000
C    -0.485000000    -0.405000000     1.801000000
H    -0.866000000    -0.142000000     2.784000000
C    -0.285000000    -1.709000000     1.371000000
H    -0.534000000    -2.624000000     1.903000000
C     0.193000000    -2.007000000     0.082000000
C     0.585000000    -3.443000000    -0.223000000
O     0.319000000    -4.396000000     0.528000000
O     1.046000000    -3.692000000    -1.350000000
O    -2.920000000    -9.446000000    -2.671000000
H    -2.493000000    -8.606000000    -2.500000000
H    -2.814000000    -9.938000000    -1.856000000
O    -1.667000000    -5.605000000     5.273000000
H    -1.655000000    -5.030000000     4.508000000
H    -2.568000000    -5.560000000     5.593000000
O     3.182000000    -6.543000000    -4.007000000
H     4.126000000    -6.565000000    -4.166000000
H     3.064000000    -5.841000000    -3.368000000
O     3.307000000    -4.801000000    -1.755000000
H     2.454000000    -4.367000000    -1.727000000
H     3.941000000    -4.084000000    -1.766000000
O     2.842000000    -5.772000000     0.609000000
H     2.028000000    -5.277000000     0.700000000
H     3.258000000    -5.408000000    -0.172000000
O     0.992000000    -8.072000000    -3.362000000
H     1.713000000    -7.691000000    -3.863000000
H     0.456000000    -7.321000000    -3.107000000
O     0.891000000    -9.428000000     2.768000000
H     1.640000000    -9.185000000     3.311000000
H     0.319000000    -8.661000000     2.793000000
O    -1.056000000    -7.589000000     2.832000000
H    -1.212000000    -6.664000000     3.022000000
H    -1.776000000    -7.839000000     2.253000000
O     1.687000000    -9.142000000     0.291000000
H     1.329000000    -8.257000000     0.219000000
H     1.565000000    -9.375000000     1.212000000
O     3.117000000    -8.407000000     3.957000000
H     3.690000000    -8.099000000     3.254000000
H     3.140000000    -7.706000000     4.608000000
O     0.493000000   -10.313000000    -1.775000000
H     0.892000000    -9.899000000    -1.010000000
H     0.398000000    -9.603000000    -2.409000000
O    -4.911000000    -7.343000000    -0.960000000
H    -3.970000000    -7.395000000    -1.130000000
H    -5.314000000    -7.778000000    -1.712000000
O    -2.943000000    -8.734000000     0.974000000
H    -2.865000000    -9.492000000     0.394000000
H    -3.862000000    -8.475000000     0.906000000
O    -1.583000000    -4.717000000     2.433000000
H    -2.182000000    -4.109000000     2.000000000
H    -0.807000000    -4.728000000     1.873000000
O     4.704000000    -7.576000000     1.936000000
H     5.499000000    -7.216000000     1.541000000
H     4.003000000    -7.000000000     1.631000000
O     6.656000000    -6.516000000    -0.081000000
H     6.888000000    -7.436000000    -0.204000000
H     6.711000000    -6.136000000    -0.959000000
O    -0.190000000    -5.555000000    -2.736000000
H     0.348000000    -5.086000000    -2.098000000
H    -0.301000000    -4.935000000    -3.457000000
O    -1.881000000    -7.299000000    -1.565000000
H    -1.511000000    -6.610000000    -2.116000000
H    -1.240000000    -7.413000000    -0.862000000
O     0.002000000    -6.985000000     0.293000000
H     0.222000000    -6.055000000     0.344000000
H    -0.098000000    -7.259000000     1.205000000
