215
-1447.94927
C    -4.708000000    -1.758000000     0.130000000
H    -4.690000000    -1.407000000    -0.898000000
C    -4.449000000    -0.867000000     1.185000000
C    -4.334000000    -1.401000000     2.515000000
H    -3.996000000    -0.707000000     3.281000000
C    -4.067000000     0.562000000     0.910000000
O    -4.853000000     1.210000000    -0.120000000
H    -3.029000000     0.446000000     0.567000000
O    -4.225000000     1.354000000     2.096000000
C    -3.187000000     2.197000000     2.417000000
C    -2.247000000     1.740000000     3.345000000
H    -2.389000000     0.732000000     3.728000000
C    -1.116000000     2.483000000     3.640000000
O    -0.248000000     1.828000000     4.472000000
C    -0.921000000     3.738000000     3.083000000
C     0.314000000     4.483000000     3.348000000
H     0.088000000     5.550000000     3.397000000
C     1.465000000     4.047000000     2.393000000
C     1.680000000     4.627000000     1.103000000
H     1.043000000     5.428000000     0.736000000
H     0.809000000     4.374000000     4.315000000
C    -1.852000000     4.187000000     2.159000000
H    -1.709000000     5.200000000     1.792000000
C    -2.925000000     3.435000000     1.730000000
C    -3.879000000     3.842000000     0.592000000
H    -3.886000000     4.924000000     0.445000000
H    -4.937000000     3.670000000     0.804000000
C    -3.599000000     3.248000000    -0.762000000
C    -2.785000000     3.877000000    -1.700000000
H    -2.295000000     4.829000000    -1.512000000
C    -4.148000000     1.962000000    -1.076000000
C    -3.844000000     1.441000000    -2.334000000
H    -4.271000000     0.464000000    -2.548000000
C    -3.101000000     2.136000000    -3.242000000
O    -2.628000000     1.454000000    -4.385000000
C    -1.365000000     0.743000000    -4.243000000
C    -1.337000000    -0.698000000    -4.700000000
C    -0.131000000    -1.401000000    -4.796000000
H     0.806000000    -0.924000000    -4.522000000
C    -2.578000000    -1.360000000    -4.837000000
H    -3.567000000    -0.918000000    -4.755000000
O    -0.240000000     1.465000000    -4.730000000
H    -1.105000000     0.631000000    -3.180000000
C    -2.494000000     3.347000000    -2.916000000
C    -1.487000000     4.012000000    -3.897000000
H    -1.639000000     5.061000000    -4.158000000
H    -1.554000000     3.603000000    -4.908000000
C    -0.018000000     3.578000000    -3.515000000
C     0.722000000     4.320000000    -2.538000000
H     0.335000000     5.231000000    -2.089000000
C     0.496000000     2.423000000    -4.032000000
C     1.807000000     2.068000000    -3.694000000
H     2.162000000     1.099000000    -4.034000000
C     2.483000000     2.677000000    -2.723000000
O     3.646000000     2.175000000    -2.413000000
C     3.868000000     1.497000000    -1.161000000
C     4.801000000     0.287000000    -1.272000000
C     4.732000000    -0.572000000    -2.380000000
H     4.150000000    -0.252000000    -3.240000000
C     5.505000000    -0.068000000    -0.198000000
H     5.494000000     0.588000000     0.669000000
O     4.240000000     2.543000000    -0.275000000
H     2.890000000     1.150000000    -0.796000000
C     1.925000000     3.826000000    -2.113000000
C     2.717000000     4.714000000    -1.145000000
H     2.426000000     5.766000000    -1.129000000
H     3.773000000     4.767000000    -1.421000000
C     2.640000000     4.127000000     0.288000000
C     3.338000000     2.994000000     0.637000000
C     3.190000000     2.437000000     1.890000000
H     3.770000000     1.543000000     2.103000000
C     2.267000000     2.950000000     2.778000000
O     2.081000000     2.196000000     3.967000000
C     0.955000000     1.246000000     3.900000000
H     0.643000000     1.011000000     2.872000000
C     1.261000000    -0.095000000     4.592000000
C     0.336000000    -0.888000000     5.303000000
H    -0.664000000    -0.496000000     5.469000000
C     2.548000000    -0.574000000     4.375000000
H     3.195000000    -0.029000000     3.692000000
C     2.951000000    -1.810000000     4.878000000
O     4.207000000    -2.373000000     4.708000000
C     1.950000000    -2.580000000     5.460000000
H     2.265000000    -3.562000000     5.805000000
C     0.658000000    -2.161000000     5.706000000
O    -0.230000000    -2.983000000     6.411000000
C    -1.578000000    -2.848000000     6.229000000
C    -2.291000000    -3.314000000     5.133000000
H    -1.803000000    -3.899000000     4.358000000
C    -2.233000000    -2.122000000     7.210000000
H    -1.679000000    -1.862000000     8.109000000
C    -3.607000000    -1.912000000     7.089000000
H    -4.158000000    -1.540000000     7.949000000
C    -4.350000000    -2.332000000     5.984000000
H    -5.413000000    -2.112000000     5.917000000
C    -3.618000000    -2.913000000     4.909000000
O    -4.352000000    -3.408000000     3.868000000
C    -4.612000000    -2.741000000     2.700000000
C    -5.084000000    -3.545000000     1.655000000
H    -5.239000000    -4.619000000     1.727000000
C    -5.001000000    -3.102000000     0.396000000
O    -5.208000000    -4.022000000    -0.663000000
C    -5.533000000    -3.634000000    -1.924000000
C    -4.490000000    -3.679000000    -2.887000000
H    -3.444000000    -3.836000000    -2.638000000
C    -6.869000000    -3.417000000    -2.374000000
H    -7.656000000    -3.534000000    -1.633000000
C    -7.067000000    -3.033000000    -3.700000000
H    -8.086000000    -2.789000000    -3.991000000
C    -6.042000000    -2.972000000    -4.627000000
H    -6.191000000    -2.729000000    -5.676000000
C    -4.722000000    -3.339000000    -4.267000000
O    -3.733000000    -3.402000000    -5.249000000
C    -2.576000000    -2.739000000    -5.087000000
C    -1.428000000    -3.426000000    -5.308000000
H    -1.335000000    -4.484000000    -5.536000000
C    -0.203000000    -2.755000000    -5.112000000
O     0.962000000    -3.485000000    -4.995000000
C     2.223000000    -2.972000000    -5.262000000
C     3.178000000    -2.990000000    -4.207000000
H     2.917000000    -3.352000000    -3.216000000
C     2.541000000    -2.447000000    -6.496000000
H     1.807000000    -2.502000000    -7.295000000
C     3.843000000    -1.965000000    -6.697000000
H     4.133000000    -1.604000000    -7.681000000
C     4.810000000    -1.977000000    -5.643000000
H     5.797000000    -1.544000000    -5.778000000
C     4.452000000    -2.458000000    -4.401000000
O     5.381000000    -2.659000000    -3.411000000
C     5.379000000    -1.829000000    -2.362000000
C     6.217000000    -2.122000000    -1.266000000
H     6.750000000    -3.070000000    -1.261000000
C     6.337000000    -1.254000000    -0.193000000
O     7.099000000    -1.589000000     0.899000000
C     6.722000000    -1.218000000     2.215000000
C     7.607000000    -0.478000000     3.055000000
H     8.548000000    -0.029000000     2.747000000
C     7.253000000    -0.374000000     4.408000000
H     7.888000000     0.251000000     5.030000000
C     6.091000000    -0.944000000     4.898000000
H     5.839000000    -0.843000000     5.951000000
C     5.292000000    -1.745000000     4.111000000
C     5.606000000    -1.929000000     2.777000000
H     4.960000000    -2.540000000     2.152000000
C     1.774000000    -1.853000000    -0.489000000
H     2.425000000    -2.211000000    -1.283000000
C     0.728000000    -1.046000000    -0.855000000
H     0.707000000    -0.766000000    -1.905000000
C    -0.182000000    -0.548000000     0.068000000
H    -0.979000000     0.209000000    -0.176000000
C     0.005000000    -0.898000000     1.411000000
H    -0.707000000    -0.515000000     2.138000000
C     0.919000000    -1.944000000     1.758000000
H     0.916000000    -2.474000000     2.706000000
C     1.778000000    -2.423000000     0.783000000
C     2.586000000    -3.668000000     1.079000000
O     2.719000000    -4.039000000     2.246000000
O     2.678000000    -4.547000000     0.243000000
O    -1.071000000    -7.120000000    -1.415000000
H    -0.590000000    -6.435000000    -1.881000000
H    -1.953000000    -6.764000000    -1.311000000
O     0.369000000    -5.996000000     0.872000000
H     0.191000000    -6.492000000     0.072000000
H     0.868000000    -5.235000000     0.575000000
O     5.391000000    -5.779000000     0.217000000
H     5.124000000    -5.883000000    -0.696000000
H     4.588000000    -5.533000000     0.675000000
O     7.816000000    -4.153000000     3.409000000
H     7.716000000    -3.985000000     2.472000000
H     7.078000000    -4.721000000     3.630000000
O     0.963000000    -5.657000000    -3.206000000
H     1.024000000    -6.221000000    -3.977000000
H     0.770000000    -4.789000000    -3.560000000
O     8.117000000    -5.018000000     0.637000000
H     8.480000000    -5.045000000    -0.248000000
H     7.189000000    -4.823000000     0.509000000
O     4.979000000    -5.220000000     3.480000000
H     4.266000000    -4.763000000     3.034000000
H     4.756000000    -6.148000000     3.398000000
O     4.835000000    -8.446000000     3.102000000
H     3.961000000    -8.262000000     2.757000000
H     5.406000000    -8.416000000     2.335000000
O     6.834000000    -8.119000000     0.985000000
H     6.664000000    -7.191000000     0.820000000
H     7.432000000    -8.380000000     0.285000000
O    -0.163000000    -5.821000000     6.135000000
H    -0.200000000    -5.050000000     6.702000000
H     0.173000000    -5.490000000     5.302000000
O     5.268000000    -5.210000000     6.110000000
H     4.424000000    -5.315000000     6.550000000
H     5.051000000    -4.806000000     5.270000000
O     4.293000000    -6.516000000    -4.188000000
H     3.907000000    -6.360000000    -3.326000000
H     3.549000000    -6.498000000    -4.790000000
O     4.230000000    -8.693000000    -1.465000000
H     3.446000000    -9.220000000    -1.623000000
H     3.911000000    -7.791000000    -1.439000000
O     2.470000000    -7.721000000     1.964000000
H     1.960000000    -8.112000000     1.255000000
H     2.145000000    -6.822000000     2.025000000
O     1.961000000    -9.442000000     4.113000000
H     2.233000000    -8.640000000     3.667000000
H     2.429000000   -10.141000000     3.656000000
O    -1.830000000    -7.672000000     2.166000000
H    -1.710000000    -7.775000000     3.110000000
H    -0.942000000    -7.684000000     1.809000000
O     3.011000000    -6.302000000    -1.675000000
H     2.193000000    -6.146000000    -2.149000000
H     2.980000000    -5.693000000    -0.937000000
O     6.814000000    -7.285000000     5.371000000
H     6.208000000    -7.820000000     4.859000000
H     6.469000000    -6.395000000     5.297000000
O     1.073000000    -5.321000000     3.694000000
H     0.625000000    -5.799000000     2.996000000
H     1.778000000    -4.851000000     3.248000000
