215
-1462.34474
C    -5.602000000    -0.581000000     0.412000000
H    -5.749000000    -0.226000000    -0.605000000
C    -4.792000000     0.159000000     1.291000000
C    -4.497000000    -0.381000000     2.541000000
H    -3.745000000     0.042000000     3.202000000
C    -4.010000000     1.431000000     0.839000000
O    -4.568000000     2.203000000    -0.228000000
H    -3.009000000     1.066000000     0.565000000
O    -3.775000000     2.293000000     1.996000000
C    -2.584000000     2.888000000     2.128000000
C    -1.826000000     2.337000000     3.181000000
H    -2.123000000     1.537000000     3.855000000
C    -0.598000000     2.999000000     3.357000000
O     0.204000000     2.397000000     4.258000000
C    -0.195000000     4.143000000     2.594000000
C     1.232000000     4.727000000     2.773000000
H     1.294000000     5.758000000     2.420000000
C     2.311000000     3.951000000     1.961000000
C     2.624000000     4.290000000     0.641000000
H     2.147000000     5.160000000     0.198000000
H     1.513000000     4.769000000     3.827000000
C    -0.979000000     4.645000000     1.585000000
H    -0.660000000     5.500000000     0.994000000
C    -2.212000000     3.979000000     1.317000000
C    -3.076000000     4.558000000     0.228000000
H    -2.815000000     5.615000000     0.145000000
H    -4.095000000     4.669000000     0.603000000
C    -3.024000000     3.802000000    -1.073000000
C    -2.071000000     4.149000000    -2.030000000
H    -1.444000000     5.029000000    -1.907000000
C    -3.827000000     2.629000000    -1.258000000
C    -3.678000000     1.837000000    -2.391000000
H    -4.173000000     0.869000000    -2.423000000
C    -2.748000000     2.241000000    -3.386000000
O    -2.338000000     1.248000000    -4.286000000
C    -1.112000000     0.492000000    -3.953000000
C    -1.410000000    -0.971000000    -4.270000000
C    -0.477000000    -1.703000000    -5.051000000
H     0.413000000    -1.204000000    -5.426000000
C    -2.465000000    -1.652000000    -3.687000000
H    -3.158000000    -1.074000000    -3.082000000
O    -0.043000000     1.027000000    -4.745000000
H    -0.931000000     0.494000000    -2.868000000
C    -1.890000000     3.341000000    -3.160000000
C    -0.798000000     3.675000000    -4.187000000
H    -0.747000000     4.759000000    -4.067000000
H    -0.988000000     3.343000000    -5.210000000
C     0.532000000     3.112000000    -3.625000000
C     1.460000000     3.826000000    -2.866000000
H     1.262000000     4.836000000    -2.515000000
C     0.805000000     1.783000000    -3.977000000
C     1.969000000     1.180000000    -3.681000000
H     2.120000000     0.158000000    -4.021000000
C     2.987000000     1.895000000    -3.013000000
O     4.079000000     1.133000000    -2.602000000
C     4.074000000     0.538000000    -1.301000000
C     4.505000000    -0.903000000    -1.320000000
C     4.538000000    -1.681000000    -2.474000000
H     4.320000000    -1.207000000    -3.428000000
C     4.975000000    -1.519000000    -0.126000000
H     5.099000000    -0.888000000     0.750000000
O     4.780000000     1.445000000    -0.354000000
H     3.048000000     0.531000000    -0.905000000
C     2.685000000     3.196000000    -2.562000000
C     3.675000000     3.887000000    -1.640000000
H     3.519000000     4.942000000    -1.872000000
H     4.643000000     3.571000000    -2.033000000
C     3.441000000     3.477000000    -0.131000000
C     4.035000000     2.347000000     0.429000000
C     3.705000000     1.943000000     1.714000000
H     4.132000000     1.008000000     2.066000000
C     2.802000000     2.793000000     2.506000000
O     2.423000000     2.281000000     3.709000000
C     1.194000000     1.465000000     3.750000000
H     0.974000000     1.045000000     2.757000000
C     1.413000000     0.276000000     4.763000000
C     0.321000000    -0.134000000     5.499000000
H    -0.583000000     0.457000000     5.378000000
C     2.580000000    -0.516000000     4.780000000
H     3.419000000    -0.179000000     4.176000000
C     2.713000000    -1.663000000     5.487000000
O     3.876000000    -2.385000000     5.571000000
C     1.589000000    -2.182000000     6.104000000
H     1.708000000    -3.077000000     6.708000000
C     0.361000000    -1.454000000     6.085000000
O    -0.710000000    -1.971000000     6.836000000
C    -1.940000000    -1.544000000     6.507000000
C    -2.682000000    -2.108000000     5.490000000
H    -2.324000000    -3.009000000     4.998000000
C    -2.538000000    -0.572000000     7.280000000
H    -1.972000000    -0.010000000     8.018000000
C    -3.692000000     0.005000000     6.910000000
H    -4.286000000     0.748000000     7.434000000
C    -4.460000000    -0.594000000     5.885000000
H    -5.411000000    -0.174000000     5.569000000
C    -3.976000000    -1.697000000     5.231000000
O    -4.715000000    -2.222000000     4.187000000
C    -5.045000000    -1.618000000     2.978000000
C    -5.840000000    -2.301000000     2.038000000
H    -6.124000000    -3.321000000     2.286000000
C    -6.170000000    -1.765000000     0.811000000
O    -6.933000000    -2.503000000    -0.078000000
C    -6.538000000    -2.704000000    -1.367000000
C    -5.282000000    -3.125000000    -1.752000000
H    -4.657000000    -3.439000000    -0.920000000
C    -7.497000000    -2.486000000    -2.381000000
H    -8.468000000    -2.078000000    -2.114000000
C    -7.160000000    -2.536000000    -3.714000000
H    -7.911000000    -2.272000000    -4.454000000
C    -5.890000000    -2.935000000    -4.073000000
H    -5.663000000    -3.049000000    -5.130000000
C    -4.918000000    -3.202000000    -3.062000000
O    -3.655000000    -3.684000000    -3.365000000
C    -2.651000000    -2.979000000    -3.946000000
C    -1.741000000    -3.765000000    -4.613000000
H    -1.837000000    -4.846000000    -4.663000000
C    -0.586000000    -3.123000000    -5.069000000
O     0.448000000    -3.930000000    -5.569000000
C     1.763000000    -3.608000000    -5.638000000
C     2.659000000    -3.793000000    -4.572000000
H     2.244000000    -4.263000000    -3.683000000
C     2.212000000    -3.127000000    -6.890000000
H     1.486000000    -2.839000000    -7.645000000
C     3.599000000    -2.851000000    -7.020000000
H     3.938000000    -2.374000000    -7.936000000
C     4.456000000    -3.039000000    -5.968000000
H     5.497000000    -2.789000000    -6.154000000
C     4.009000000    -3.500000000    -4.734000000
O     4.981000000    -3.637000000    -3.674000000
C     4.962000000    -2.982000000    -2.465000000
C     5.343000000    -3.575000000    -1.244000000
H     5.644000000    -4.618000000    -1.295000000
C     5.323000000    -2.833000000    -0.048000000
O     5.627000000    -3.444000000     1.123000000
C     5.758000000    -2.858000000     2.383000000
C     6.819000000    -1.939000000     2.621000000
H     7.506000000    -1.753000000     1.800000000
C     6.882000000    -1.194000000     3.768000000
H     7.735000000    -0.529000000     3.874000000
C     5.977000000    -1.451000000     4.799000000
H     6.083000000    -0.891000000     5.724000000
C     4.915000000    -2.310000000     4.589000000
C     4.811000000    -3.008000000     3.400000000
H     3.925000000    -3.630000000     3.307000000
C     1.660000000    -2.926000000    -0.585000000
H     2.207000000    -3.645000000    -1.189000000
C     1.096000000    -1.796000000    -1.208000000
H     1.030000000    -1.680000000    -2.287000000
C     0.340000000    -0.889000000    -0.403000000
H    -0.056000000     0.040000000    -0.827000000
C     0.147000000    -1.069000000     0.903000000
H    -0.416000000    -0.341000000     1.482000000
C     0.685000000    -2.203000000     1.510000000
H     0.580000000    -2.374000000     2.578000000
C     1.344000000    -3.228000000     0.753000000
C     1.752000000    -4.506000000     1.367000000
O     1.617000000    -4.618000000     2.592000000
O     2.235000000    -5.355000000     0.677000000
O     8.030000000    -4.308000000     0.179000000
H     7.855000000    -5.193000000    -0.142000000
H     7.245000000    -4.074000000     0.675000000
O    -3.208000000    -5.889000000    -0.601000000
H    -2.947000000    -5.886000000    -1.522000000
H    -4.116000000    -6.190000000    -0.610000000
O    -0.761000000    -8.024000000    -0.227000000
H    -1.026000000    -7.413000000    -0.914000000
H    -1.568000000    -8.211000000     0.252000000
O     4.451000000    -6.692000000     0.328000000
H     4.780000000    -6.817000000     1.218000000
H     3.622000000    -6.227000000     0.443000000
O     0.781000000    -7.159000000     6.407000000
H     1.095000000    -7.863000000     5.840000000
H     0.196000000    -7.594000000     7.027000000
O     5.602000000    -6.398000000     4.635000000
H     5.880000000    -7.204000000     4.201000000
H     4.648000000    -6.402000000     4.561000000
O    -1.114000000    -6.453000000    -2.543000000
H    -0.794000000    -6.911000000    -3.320000000
H    -0.357000000    -5.960000000    -2.227000000
O    -1.560000000    -7.800000000     3.111000000
H    -1.220000000    -6.911000000     3.213000000
H    -1.933000000    -8.014000000     3.966000000
O     7.000000000    -6.784000000    -0.692000000
H     7.075000000    -7.612000000    -1.166000000
H     6.059000000    -6.612000000    -0.655000000
O     2.840000000    -6.206000000     4.331000000
H     2.304000000    -5.979000000     5.090000000
H     2.431000000    -5.741000000     3.601000000
O    -2.031000000    -5.875000000     5.954000000
H    -1.583000000    -5.978000000     6.794000000
H    -1.325000000    -5.742000000     5.321000000
O     3.932000000    -9.112000000    -1.509000000
H     2.996000000    -9.066000000    -1.704000000
H     4.150000000    -8.241000000    -1.178000000
O     1.231000000    -9.116000000    -2.008000000
H     0.958000000    -8.607000000    -2.772000000
H     0.436000000    -9.202000000    -1.482000000
O     1.382000000    -7.785000000     1.225000000
H     1.564000000    -6.846000000     1.268000000
H     0.626000000    -7.856000000     0.642000000
O     2.387000000   -10.028000000     2.533000000
H     2.134000000    -9.182000000     2.163000000
H     2.947000000   -10.424000000     1.865000000
O    -0.973000000   -10.187000000     2.286000000
H    -1.036000000    -9.412000000     2.844000000
H    -0.040000000   -10.398000000     2.273000000
O    -2.311000000    -4.310000000     1.442000000
H    -1.844000000    -3.602000000     0.999000000
H    -2.611000000    -4.879000000     0.733000000
O     1.502000000    -6.210000000    -1.884000000
H     1.540000000    -7.154000000    -1.729000000
H     1.764000000    -5.820000000    -1.049000000
O    -0.740000000    -5.343000000     3.468000000
H    -1.292000000    -5.024000000     2.754000000
H     0.153000000    -5.143000000     3.189000000
