215
-1444.89175
C    -4.704000000    -1.362000000    -0.581000000
H    -4.378000000    -1.386000000    -1.617000000
C    -4.729000000    -0.030000000     0.022000000
C    -5.191000000     0.017000000     1.356000000
H    -5.239000000     1.009000000     1.797000000
C    -4.163000000     1.190000000    -0.672000000
O    -4.396000000     1.247000000    -2.100000000
H    -3.081000000     1.029000000    -0.556000000
O    -4.468000000     2.463000000    -0.146000000
C    -3.383000000     3.229000000     0.186000000
C    -2.693000000     2.958000000     1.356000000
H    -2.894000000     2.120000000     2.019000000
C    -1.575000000     3.674000000     1.708000000
O    -1.020000000     3.379000000     2.894000000
C    -1.093000000     4.665000000     0.835000000
C     0.284000000     5.237000000     1.091000000
H     0.454000000     6.117000000     0.467000000
C     1.535000000     4.372000000     0.972000000
C     2.320000000     4.500000000    -0.206000000
H     1.973000000     5.110000000    -1.037000000
H     0.230000000     5.706000000     2.075000000
C    -1.784000000     4.922000000    -0.359000000
H    -1.268000000     5.578000000    -1.056000000
C    -2.898000000     4.196000000    -0.720000000
C    -3.513000000     4.240000000    -2.101000000
H    -3.435000000     5.186000000    -2.641000000
H    -4.575000000     3.987000000    -2.124000000
C    -2.898000000     3.094000000    -2.927000000
C    -1.647000000     3.277000000    -3.522000000
H    -1.083000000     4.178000000    -3.296000000
C    -3.422000000     1.748000000    -2.929000000
C    -2.767000000     0.735000000    -3.657000000
H    -3.201000000    -0.251000000    -3.800000000
C    -1.495000000     0.965000000    -4.153000000
O    -0.918000000    -0.129000000    -4.671000000
C     0.044000000    -0.815000000    -3.882000000
C    -0.129000000    -2.268000000    -3.802000000
C     0.865000000    -3.017000000    -3.283000000
H     1.765000000    -2.655000000    -2.793000000
C    -1.350000000    -2.849000000    -4.313000000
H    -2.060000000    -2.265000000    -4.893000000
O     1.308000000    -0.386000000    -4.328000000
H    -0.048000000    -0.538000000    -2.821000000
C    -1.000000000     2.250000000    -4.144000000
C     0.356000000     2.555000000    -4.730000000
H     0.437000000     3.600000000    -5.034000000
H     0.289000000     2.071000000    -5.706000000
C     1.577000000     2.061000000    -3.951000000
C     2.320000000     3.053000000    -3.304000000
H     2.013000000     4.096000000    -3.279000000
C     1.984000000     0.728000000    -3.867000000
C     3.064000000     0.367000000    -3.124000000
H     3.418000000    -0.654000000    -3.247000000
C     3.764000000     1.346000000    -2.393000000
O     4.782000000     0.968000000    -1.580000000
C     4.499000000     0.809000000    -0.157000000
C     5.263000000    -0.448000000     0.376000000
C     5.219000000    -1.567000000    -0.395000000
H     4.796000000    -1.518000000    -1.395000000
C     5.678000000    -0.439000000     1.679000000
H     5.481000000     0.440000000     2.289000000
O     4.918000000     2.083000000     0.473000000
H     3.426000000     0.690000000     0.053000000
C     3.456000000     2.697000000    -2.520000000
C     4.100000000     3.754000000    -1.750000000
H     4.116000000     4.755000000    -2.185000000
H     5.165000000     3.613000000    -1.558000000
C     3.493000000     3.734000000    -0.401000000
C     3.885000000     2.933000000     0.636000000
C     3.158000000     2.844000000     1.802000000
H     3.543000000     2.300000000     2.661000000
C     1.947000000     3.517000000     1.937000000
O     1.262000000     3.169000000     3.082000000
C     0.115000000     2.482000000     2.846000000
H     0.147000000     2.027000000     1.845000000
C    -0.040000000     1.230000000     3.829000000
C    -1.180000000     1.164000000     4.649000000
H    -1.974000000     1.894000000     4.513000000
C     0.990000000     0.290000000     3.999000000
H     1.931000000     0.318000000     3.456000000
C     0.883000000    -0.616000000     5.059000000
O     1.859000000    -1.515000000     5.297000000
C    -0.262000000    -0.724000000     5.863000000
H    -0.344000000    -1.475000000     6.645000000
C    -1.279000000     0.227000000     5.693000000
O    -2.531000000    -0.023000000     6.248000000
C    -3.804000000     0.294000000     5.733000000
C    -4.199000000    -0.471000000     4.600000000
H    -3.590000000    -1.315000000     4.287000000
C    -4.701000000     1.112000000     6.350000000
H    -4.534000000     1.543000000     7.334000000
C    -5.960000000     1.287000000     5.907000000
H    -6.659000000     1.873000000     6.498000000
C    -6.352000000     0.515000000     4.820000000
H    -7.409000000     0.469000000     4.568000000
C    -5.479000000    -0.336000000     4.146000000
O    -6.037000000    -1.212000000     3.257000000
C    -5.691000000    -1.148000000     1.961000000
C    -5.611000000    -2.420000000     1.305000000
H    -5.986000000    -3.278000000     1.856000000
C    -5.230000000    -2.514000000    -0.021000000
O    -5.098000000    -3.714000000    -0.654000000
C    -5.097000000    -3.884000000    -2.006000000
C    -3.917000000    -4.212000000    -2.619000000
H    -3.098000000    -4.487000000    -1.960000000
C    -6.194000000    -3.437000000    -2.799000000
H    -7.085000000    -3.055000000    -2.307000000
C    -6.111000000    -3.577000000    -4.146000000
H    -6.877000000    -3.246000000    -4.842000000
C    -4.904000000    -3.964000000    -4.804000000
H    -4.908000000    -3.974000000    -5.891000000
C    -3.848000000    -4.316000000    -4.009000000
O    -2.719000000    -4.805000000    -4.579000000
C    -1.519000000    -4.259000000    -4.217000000
C    -0.545000000    -5.048000000    -3.699000000
H    -0.699000000    -6.124000000    -3.717000000
C     0.654000000    -4.462000000    -3.281000000
O     1.658000000    -5.299000000    -2.831000000
C     2.995000000    -4.902000000    -2.835000000
C     3.736000000    -4.706000000    -1.681000000
H     3.219000000    -4.736000000    -0.725000000
C     3.642000000    -4.684000000    -4.059000000
H     3.210000000    -5.066000000    -4.980000000
C     4.937000000    -4.231000000    -4.102000000
H     5.344000000    -4.084000000    -5.099000000
C     5.592000000    -3.867000000    -2.986000000
H     6.617000000    -3.522000000    -3.095000000
C     5.019000000    -4.092000000    -1.724000000
O     5.708000000    -3.955000000    -0.611000000
C     5.675000000    -2.780000000     0.135000000
C     6.179000000    -2.726000000     1.439000000
H     6.594000000    -3.619000000     1.899000000
C     6.183000000    -1.579000000     2.246000000
O     6.390000000    -1.631000000     3.586000000
C     5.499000000    -1.141000000     4.509000000
C     5.940000000    -0.361000000     5.577000000
H     6.948000000     0.025000000     5.708000000
C     4.998000000     0.127000000     6.491000000
H     5.203000000     0.803000000     7.318000000
C     3.654000000    -0.294000000     6.395000000
H     2.874000000     0.084000000     7.051000000
C     3.218000000    -1.130000000     5.337000000
C     4.184000000    -1.561000000     4.444000000
H     3.958000000    -2.151000000     3.560000000
C     1.487000000    -1.407000000     0.030000000
H     2.505000000    -1.724000000    -0.176000000
C     1.015000000    -0.153000000    -0.415000000
H     1.683000000     0.539000000    -0.923000000
C    -0.209000000     0.348000000    -0.056000000
H    -0.545000000     1.342000000    -0.355000000
C    -0.981000000    -0.422000000     0.765000000
H    -1.906000000    -0.022000000     1.172000000
C    -0.573000000    -1.667000000     1.212000000
H    -1.254000000    -2.261000000     1.816000000
C     0.631000000    -2.196000000     0.829000000
C     1.091000000    -3.530000000     1.324000000
O     0.289000000    -4.371000000     1.754000000
O     2.276000000    -3.767000000     1.350000000
O    -1.323000000    -4.676000000    -0.199000000
H    -0.880000000    -4.675000000     0.649000000
H    -0.915000000    -3.959000000    -0.684000000
O    -3.537000000    -5.914000000     1.291000000
H    -3.369000000    -5.246000000     0.627000000
H    -2.784000000    -6.502000000     1.234000000
O     3.153000000    -4.727000000     4.473000000
H     3.266000000    -5.112000000     3.604000000
H     2.431000000    -4.107000000     4.368000000
O    -0.102000000    -9.153000000     2.868000000
H     0.341000000    -8.384000000     2.509000000
H     0.593000000    -9.652000000     3.296000000
O     1.342000000    -7.087000000     1.678000000
H     0.972000000    -6.210000000     1.779000000
H     2.268000000    -6.983000000     1.897000000
O     1.976000000    -8.016000000    -3.437000000
H     1.892000000    -8.293000000    -2.525000000
H     2.026000000    -7.061000000    -3.394000000
O     0.796000000    -3.486000000     7.467000000
H     1.753000000    -3.498000000     7.479000000
H     0.565000000    -3.730000000     6.571000000
O    -3.929000000    -4.539000000     3.947000000
H    -4.006000000    -5.053000000     3.143000000
H    -3.677000000    -5.177000000     4.615000000
O     6.087000000    -4.614000000     5.509000000
H     6.661000000    -5.000000000     4.847000000
H     5.206000000    -4.714000000     5.150000000
O    -1.176000000    -5.793000000     7.756000000
H    -0.456000000    -6.014000000     7.165000000
H    -1.050000000    -4.864000000     7.950000000
O     4.775000000    -7.878000000     0.210000000
H     4.728000000    -7.881000000     1.166000000
H     5.437000000    -8.538000000     0.001000000
O     2.034000000    -8.590000000    -0.531000000
H     2.937000000    -8.308000000    -0.386000000
H     1.526000000    -8.118000000     0.128000000
O    -0.113000000    -4.526000000     4.488000000
H    -0.880000000    -5.079000000     4.638000000
H    -0.103000000    -4.381000000     3.542000000
O    -0.963000000    -9.118000000    -1.596000000
H    -0.094000000    -8.747000000    -1.444000000
H    -0.944000000    -9.963000000    -1.146000000
O     0.844000000    -6.762000000     6.184000000
H     0.952000000    -6.032000000     5.574000000
H     1.274000000    -7.500000000     5.753000000
O     3.470000000    -4.095000000     7.147000000
H     3.502000000    -4.253000000     6.204000000
H     4.191000000    -3.487000000     7.313000000
O     7.079000000    -6.345000000    -1.719000000
H     6.172000000    -6.627000000    -1.603000000
H     7.474000000    -6.445000000    -0.852000000
O     3.849000000    -5.684000000     2.151000000
H     4.706000000    -5.676000000     1.723000000
H     3.354000000    -4.995000000     1.708000000
O    -2.750000000    -6.758000000     4.984000000
H    -1.942000000    -6.824000000     5.493000000
H    -2.839000000    -7.613000000     4.563000000
