215
-1472.80922
C    -4.954000000    -1.400000000    -0.841000000
H    -4.298000000    -1.459000000    -1.706000000
C    -4.994000000    -0.178000000    -0.183000000
C    -5.528000000    -0.137000000     1.132000000
H    -5.601000000     0.831000000     1.621000000
C    -4.264000000     1.009000000    -0.713000000
O    -4.401000000     1.049000000    -2.155000000
H    -3.192000000     0.788000000    -0.606000000
O    -4.614000000     2.250000000    -0.095000000
C    -3.571000000     3.000000000     0.187000000
C    -3.035000000     2.925000000     1.477000000
H    -3.527000000     2.354000000     2.260000000
C    -1.872000000     3.601000000     1.793000000
O    -1.357000000     3.543000000     3.029000000
C    -1.421000000     4.472000000     0.828000000
C    -0.236000000     5.342000000     1.183000000
H    -0.235000000     6.218000000     0.531000000
C     1.171000000     4.639000000     1.048000000
C     1.806000000     4.648000000    -0.202000000
H     1.238000000     5.185000000    -0.958000000
H    -0.345000000     5.810000000     2.164000000
C    -1.979000000     4.604000000    -0.425000000
H    -1.516000000     5.280000000    -1.140000000
C    -3.028000000     3.794000000    -0.809000000
C    -3.429000000     3.825000000    -2.270000000
H    -3.134000000     4.747000000    -2.776000000
H    -4.519000000     3.770000000    -2.299000000
C    -2.820000000     2.635000000    -3.016000000
C    -1.667000000     2.880000000    -3.832000000
H    -1.300000000     3.902000000    -3.785000000
C    -3.332000000     1.381000000    -2.961000000
C    -2.680000000     0.341000000    -3.598000000
H    -3.068000000    -0.667000000    -3.478000000
C    -1.507000000     0.557000000    -4.328000000
O    -0.805000000    -0.480000000    -4.769000000
C     0.349000000    -0.996000000    -4.066000000
C     0.258000000    -2.467000000    -3.818000000
C     1.383000000    -3.185000000    -3.413000000
H     2.369000000    -2.732000000    -3.355000000
C    -0.963000000    -3.137000000    -4.021000000
H    -1.900000000    -2.630000000    -4.237000000
O     1.588000000    -0.547000000    -4.722000000
H     0.264000000    -0.393000000    -3.150000000
C    -0.952000000     1.869000000    -4.501000000
C     0.359000000     2.102000000    -5.334000000
H     0.281000000     3.131000000    -5.691000000
H     0.342000000     1.358000000    -6.133000000
C     1.578000000     1.881000000    -4.429000000
C     2.133000000     2.942000000    -3.705000000
H     1.805000000     3.963000000    -3.882000000
C     2.131000000     0.597000000    -4.212000000
C     3.217000000     0.405000000    -3.333000000
H     3.550000000    -0.621000000    -3.197000000
C     3.701000000     1.479000000    -2.657000000
O     4.626000000     1.219000000    -1.650000000
C     4.309000000     1.141000000    -0.261000000
C     5.044000000     0.052000000     0.523000000
C     5.151000000    -1.177000000    -0.068000000
H     4.618000000    -1.387000000    -0.992000000
C     5.615000000     0.227000000     1.800000000
H     5.606000000     1.203000000     2.278000000
O     4.578000000     2.392000000     0.345000000
H     3.273000000     0.800000000    -0.116000000
C     3.122000000     2.739000000    -2.699000000
C     3.598000000     3.914000000    -1.813000000
H     3.258000000     4.871000000    -2.215000000
H     4.677000000     4.056000000    -1.906000000
C     2.965000000     3.922000000    -0.443000000
C     3.483000000     3.150000000     0.594000000
C     2.866000000     3.116000000     1.835000000
H     3.263000000     2.467000000     2.611000000
C     1.635000000     3.812000000     2.055000000
O     0.955000000     3.566000000     3.238000000
C    -0.172000000     2.683000000     3.072000000
H    -0.016000000     2.126000000     2.136000000
C    -0.236000000     1.646000000     4.193000000
C    -1.483000000     1.258000000     4.810000000
H    -2.437000000     1.763000000     4.676000000
C     0.883000000     0.894000000     4.430000000
H     1.742000000     0.964000000     3.768000000
C     0.860000000    -0.075000000     5.411000000
O     1.944000000    -1.018000000     5.388000000
C    -0.365000000    -0.561000000     5.886000000
H    -0.369000000    -1.491000000     6.449000000
C    -1.530000000     0.113000000     5.641000000
O    -2.714000000    -0.463000000     6.023000000
C    -3.919000000     0.000000000     5.412000000
C    -4.509000000    -0.780000000     4.387000000
H    -3.846000000    -1.502000000     3.918000000
C    -4.660000000     1.056000000     6.008000000
H    -4.240000000     1.595000000     6.854000000
C    -5.974000000     1.334000000     5.502000000
H    -6.630000000     2.113000000     5.883000000
C    -6.536000000     0.510000000     4.526000000
H    -7.535000000     0.735000000     4.162000000
C    -5.765000000    -0.507000000     3.938000000
O    -6.436000000    -1.315000000     3.000000000
C    -6.057000000    -1.329000000     1.670000000
C    -5.988000000    -2.577000000     0.986000000
H    -6.272000000    -3.449000000     1.570000000
C    -5.392000000    -2.614000000    -0.269000000
O    -5.095000000    -3.818000000    -0.860000000
C    -4.876000000    -3.965000000    -2.201000000
C    -3.667000000    -4.585000000    -2.524000000
H    -2.993000000    -4.893000000    -1.728000000
C    -5.811000000    -3.660000000    -3.141000000
H    -6.805000000    -3.287000000    -2.904000000
C    -5.506000000    -3.889000000    -4.466000000
H    -6.331000000    -3.870000000    -5.173000000
C    -4.335000000    -4.479000000    -4.850000000
H    -4.045000000    -4.723000000    -5.869000000
C    -3.402000000    -4.809000000    -3.900000000
O    -2.142000000    -5.276000000    -4.290000000
C    -1.015000000    -4.542000000    -3.851000000
C     0.109000000    -5.249000000    -3.711000000
H     0.028000000    -6.331000000    -3.647000000
C     1.279000000    -4.574000000    -3.400000000
O     2.422000000    -5.319000000    -3.177000000
C     3.675000000    -4.851000000    -2.827000000
C     4.046000000    -4.624000000    -1.466000000
H     3.474000000    -4.953000000    -0.603000000
C     4.598000000    -4.586000000    -3.834000000
H     4.235000000    -4.532000000    -4.858000000
C     5.799000000    -3.973000000    -3.538000000
H     6.435000000    -3.705000000    -4.378000000
C     6.103000000    -3.703000000    -2.246000000
H     7.053000000    -3.237000000    -1.998000000
C     5.203000000    -3.947000000    -1.220000000
O     5.592000000    -3.622000000     0.084000000
C     5.658000000    -2.311000000     0.570000000
C     6.110000000    -2.143000000     1.865000000
H     6.312000000    -2.969000000     2.542000000
C     6.107000000    -0.886000000     2.483000000
O     6.448000000    -0.826000000     3.797000000
C     5.542000000    -0.577000000     4.801000000
C     5.948000000    -0.135000000     6.016000000
H     7.006000000     0.113000000     6.043000000
C     5.028000000    -0.001000000     7.084000000
H     5.394000000     0.326000000     8.054000000
C     3.686000000    -0.234000000     6.870000000
H     2.944000000    -0.040000000     7.640000000
C     3.272000000    -0.623000000     5.618000000
C     4.162000000    -0.823000000     4.594000000
H     3.833000000    -1.115000000     3.600000000
C     1.063000000    -1.624000000     0.369000000
H     1.875000000    -2.305000000     0.131000000
C     0.810000000    -0.475000000    -0.394000000
H     1.550000000    -0.114000000    -1.103000000
C    -0.305000000     0.305000000    -0.185000000
H    -0.451000000     1.230000000    -0.618000000
C    -1.202000000    -0.075000000     0.890000000
H    -2.095000000     0.506000000     1.106000000
C    -0.952000000    -1.282000000     1.586000000
H    -1.697000000    -1.549000000     2.332000000
C     0.187000000    -2.073000000     1.364000000
C     0.411000000    -3.280000000     2.245000000
O    -0.588000000    -3.750000000     2.800000000
O     1.492000000    -3.736000000     2.468000000
O    -0.102000000    -5.923000000    -0.266000000
H     0.685000000    -6.099000000     0.249000000
H     0.171000000    -5.263000000    -0.903000000
O    -2.449000000    -5.283000000     0.991000000
H    -1.707000000    -5.850000000     0.781000000
H    -2.094000000    -4.642000000     1.608000000
O     1.853000000    -4.160000000     5.173000000
H     1.676000000    -4.038000000     4.240000000
H     1.579000000    -3.338000000     5.578000000
O    -1.784000000    -7.093000000     5.007000000
H    -0.985000000    -6.854000000     5.477000000
H    -1.577000000    -7.930000000     4.592000000
O    -3.322000000    -3.164000000     7.171000000
H    -2.757000000    -2.424000000     7.394000000
H    -3.081000000    -3.386000000     6.271000000
O     0.625000000    -6.530000000     3.400000000
H     0.328000000    -5.628000000     3.282000000
H     1.300000000    -6.650000000     2.732000000
O    -5.246000000    -5.002000000     3.487000000
H    -4.774000000    -5.828000000     3.378000000
H    -4.557000000    -4.343000000     3.577000000
O    -3.485000000    -6.211000000     7.221000000
H    -3.686000000    -5.312000000     7.482000000
H    -2.916000000    -6.116000000     6.457000000
O     0.762000000    -6.393000000     6.422000000
H     1.139000000    -5.591000000     6.060000000
H     1.346000000    -7.089000000     6.122000000
O     2.119000000    -6.709000000     1.324000000
H     2.666000000    -5.938000000     1.480000000
H     2.740000000    -7.435000000     1.266000000
O    -0.258000000    -8.985000000     3.443000000
H    -0.108000000    -9.188000000     2.520000000
H    -0.010000000    -8.064000000     3.529000000
O    -2.400000000    -3.764000000     4.714000000
H    -2.285000000    -4.698000000     4.891000000
H    -1.768000000    -3.572000000     4.021000000
O    -2.484000000    -7.524000000    -1.337000000
H    -2.955000000    -7.393000000    -0.514000000
H    -1.563000000    -7.396000000    -1.109000000
O     4.368000000    -4.807000000     6.114000000
H     3.542000000    -4.500000000     5.742000000
H     4.919000000    -4.995000000     5.354000000
O     6.207000000    -5.091000000     4.086000000
H     6.324000000    -6.033000000     3.961000000
H     5.592000000    -4.834000000     3.399000000
O    -4.261000000    -7.565000000     3.687000000
H    -3.982000000    -8.188000000     3.015000000
H    -3.452000000    -7.318000000     4.135000000
O     3.975000000    -4.604000000     2.139000000
H     4.290000000    -4.238000000     1.313000000
H     3.091000000    -4.251000000     2.236000000
O    -5.239000000    -6.222000000     0.650000000
H    -4.333000000    -6.130000000     0.944000000
H    -5.467000000    -5.360000000     0.302000000
O     0.310000000    -8.778000000     0.063000000
H     0.414000000    -7.828000000     0.126000000
H     0.928000000    -9.041000000    -0.620000000
