215
-1471.88763
C    -5.411000000    -1.013000000    -0.870000000
H    -5.861000000    -0.868000000    -1.849000000
C    -4.874000000    -0.039000000    -0.060000000
C    -4.751000000    -0.347000000     1.292000000
H    -4.532000000     0.493000000     1.946000000
C    -4.303000000     1.297000000    -0.563000000
O    -4.657000000     1.454000000    -2.016000000
H    -3.214000000     1.213000000    -0.430000000
O    -4.652000000     2.548000000     0.052000000
C    -3.634000000     3.419000000     0.206000000
C    -3.013000000     3.421000000     1.462000000
H    -3.537000000     3.025000000     2.328000000
C    -1.785000000     3.977000000     1.650000000
O    -1.170000000     3.804000000     2.913000000
C    -1.240000000     4.694000000     0.590000000
C     0.060000000     5.476000000     0.772000000
H     0.036000000     6.388000000     0.172000000
C     1.315000000     4.623000000     0.638000000
C     2.024000000     4.627000000    -0.573000000
H     1.682000000     5.278000000    -1.373000000
H     0.011000000     6.016000000     1.719000000
C    -1.864000000     4.907000000    -0.644000000
H    -1.403000000     5.475000000    -1.447000000
C    -3.062000000     4.089000000    -0.873000000
C    -3.508000000     4.119000000    -2.336000000
H    -3.250000000     5.034000000    -2.873000000
H    -4.599000000     4.090000000    -2.308000000
C    -2.959000000     2.879000000    -3.021000000
C    -1.792000000     2.917000000    -3.725000000
H    -1.255000000     3.847000000    -3.893000000
C    -3.550000000     1.645000000    -2.779000000
C    -2.974000000     0.496000000    -3.398000000
H    -3.561000000    -0.399000000    -3.208000000
C    -1.791000000     0.511000000    -4.061000000
O    -1.207000000    -0.703000000    -4.364000000
C     0.073000000    -1.007000000    -3.744000000
C     0.198000000    -2.538000000    -3.594000000
C     1.423000000    -3.276000000    -3.783000000
H     2.292000000    -2.651000000    -3.968000000
C    -0.918000000    -3.209000000    -3.132000000
H    -1.807000000    -2.658000000    -2.835000000
O     1.126000000    -0.460000000    -4.578000000
H     0.081000000    -0.586000000    -2.728000000
C    -1.177000000     1.810000000    -4.243000000
C     0.071000000     2.017000000    -5.038000000
H     0.071000000     3.053000000    -5.383000000
H     0.031000000     1.391000000    -5.932000000
C     1.375000000     1.848000000    -4.250000000
C     2.022000000     2.969000000    -3.688000000
H     1.682000000     3.992000000    -3.827000000
C     1.887000000     0.600000000    -4.082000000
C     3.020000000     0.357000000    -3.311000000
H     3.427000000    -0.641000000    -3.176000000
C     3.649000000     1.432000000    -2.719000000
O     4.684000000     1.070000000    -1.895000000
C     4.294000000     0.997000000    -0.521000000
C     4.920000000    -0.178000000     0.165000000
C     5.308000000    -1.298000000    -0.578000000
H     5.208000000    -1.303000000    -1.660000000
C     4.901000000    -0.253000000     1.565000000
H     4.509000000     0.556000000     2.176000000
O     4.641000000     2.204000000     0.188000000
H     3.208000000     0.887000000    -0.384000000
C     3.134000000     2.730000000    -2.808000000
C     3.875000000     3.837000000    -2.048000000
H     3.692000000     4.779000000    -2.568000000
H     4.951000000     3.730000000    -1.892000000
C     3.208000000     3.894000000    -0.681000000
C     3.615000000     3.090000000     0.402000000
C     2.949000000     3.067000000     1.590000000
H     3.431000000     2.469000000     2.359000000
C     1.833000000     3.867000000     1.764000000
O     1.162000000     3.763000000     2.965000000
C    -0.003000000     2.979000000     2.995000000
H    -0.010000000     2.321000000     2.113000000
C    -0.161000000     2.086000000     4.269000000
C    -1.341000000     2.046000000     5.022000000
H    -2.160000000     2.728000000     4.806000000
C     0.821000000     1.135000000     4.621000000
H     1.751000000     1.135000000     4.059000000
C     0.658000000     0.186000000     5.666000000
O     1.475000000    -0.931000000     5.786000000
C    -0.503000000     0.117000000     6.375000000
H    -0.715000000    -0.655000000     7.110000000
C    -1.501000000     1.072000000     5.975000000
O    -2.744000000     0.883000000     6.555000000
C    -3.867000000     0.494000000     5.853000000
C    -3.845000000    -0.478000000     4.883000000
H    -2.877000000    -0.947000000     4.728000000
C    -5.002000000     1.236000000     6.063000000
H    -4.961000000     2.052000000     6.780000000
C    -6.149000000     1.047000000     5.317000000
H    -7.024000000     1.625000000     5.601000000
C    -6.160000000    -0.008000000     4.386000000
H    -7.066000000    -0.216000000     3.823000000
C    -4.964000000    -0.744000000     4.166000000
O    -4.835000000    -1.786000000     3.218000000
C    -4.909000000    -1.597000000     1.846000000
C    -5.218000000    -2.636000000     1.009000000
H    -5.538000000    -3.588000000     1.425000000
C    -5.520000000    -2.341000000    -0.368000000
O    -6.201000000    -3.225000000    -1.212000000
C    -5.428000000    -4.016000000    -2.058000000
C    -4.094000000    -4.263000000    -1.794000000
H    -3.649000000    -3.835000000    -0.899000000
C    -6.059000000    -4.596000000    -3.189000000
H    -7.064000000    -4.315000000    -3.494000000
C    -5.334000000    -5.513000000    -4.027000000
H    -5.745000000    -5.921000000    -4.948000000
C    -3.975000000    -5.734000000    -3.738000000
H    -3.372000000    -6.394000000    -4.357000000
C    -3.317000000    -5.034000000    -2.673000000
O    -1.980000000    -5.316000000    -2.457000000
C    -0.873000000    -4.664000000    -3.033000000
C     0.292000000    -5.312000000    -3.347000000
H     0.308000000    -6.398000000    -3.297000000
C     1.471000000    -4.655000000    -3.618000000
O     2.707000000    -5.362000000    -3.676000000
C     3.894000000    -4.684000000    -3.412000000
C     4.353000000    -4.360000000    -2.164000000
H     3.771000000    -4.623000000    -1.284000000
C     4.669000000    -4.262000000    -4.479000000
H     4.346000000    -4.469000000    -5.496000000
C     5.915000000    -3.759000000    -4.317000000
H     6.449000000    -3.508000000    -5.229000000
C     6.441000000    -3.431000000    -3.075000000
H     7.442000000    -3.006000000    -3.077000000
C     5.656000000    -3.826000000    -1.979000000
O     6.094000000    -3.591000000    -0.716000000
C     5.776000000    -2.465000000     0.052000000
C     5.861000000    -2.456000000     1.479000000
H     6.232000000    -3.364000000     1.948000000
C     5.307000000    -1.425000000     2.200000000
O     5.601000000    -1.439000000     3.556000000
C     4.883000000    -0.984000000     4.647000000
C     5.571000000    -0.629000000     5.812000000
H     6.637000000    -0.440000000     5.722000000
C     4.885000000    -0.375000000     7.024000000
H     5.421000000    -0.129000000     7.937000000
C     3.482000000    -0.451000000     7.025000000
H     2.967000000    -0.247000000     7.961000000
C     2.841000000    -0.841000000     5.855000000
C     3.521000000    -1.155000000     4.709000000
H     2.912000000    -1.490000000     3.874000000
C     0.973000000    -1.085000000     0.219000000
H     1.728000000    -1.680000000    -0.290000000
C     0.515000000     0.126000000    -0.348000000
H     0.904000000     0.493000000    -1.294000000
C    -0.441000000     0.872000000     0.306000000
H    -0.826000000     1.761000000    -0.117000000
C    -1.096000000     0.261000000     1.332000000
H    -1.875000000     0.785000000     1.879000000
C    -0.615000000    -0.927000000     1.957000000
H    -1.049000000    -1.243000000     2.902000000
C     0.510000000    -1.534000000     1.504000000
C     1.086000000    -2.852000000     2.125000000
O     0.331000000    -3.490000000     2.852000000
O     2.099000000    -3.358000000     1.698000000
O    -2.558000000    -3.712000000     2.751000000
H    -1.627000000    -3.913000000     2.654000000
H    -2.576000000    -2.834000000     3.129000000
O    -3.389000000    -5.705000000     1.207000000
H    -3.024000000    -5.007000000     1.751000000
H    -2.628000000    -6.096000000     0.776000000
O     2.982000000    -4.721000000     4.268000000
H     2.907000000    -4.594000000     3.322000000
H     2.077000000    -4.766000000     4.576000000
O    -1.018000000    -8.003000000    -1.488000000
H    -0.064000000    -7.986000000    -1.558000000
H    -1.309000000    -7.247000000    -1.997000000
O     0.958000000    -8.670000000     1.762000000
H     1.150000000    -7.743000000     1.621000000
H     0.228000000    -8.856000000     1.172000000
O     1.376000000    -5.961000000     1.203000000
H     0.958000000    -5.167000000     1.535000000
H     2.304000000    -5.735000000     1.140000000
O     0.796000000    -3.373000000     8.093000000
H     1.656000000    -3.528000000     8.484000000
H     0.731000000    -4.021000000     7.392000000
O    -4.408000000    -5.354000000     4.209000000
H    -4.909000000    -5.981000000     3.687000000
H    -3.931000000    -4.832000000     3.563000000
O     4.888000000    -3.745000000     5.872000000
H     5.104000000    -3.023000000     5.281000000
H     4.161000000    -4.195000000     5.444000000
O     6.653000000    -4.908000000     3.805000000
H     6.238000000    -5.511000000     4.423000000
H     6.997000000    -5.473000000     3.114000000
O     3.558000000    -9.356000000     3.231000000
H     4.140000000    -8.873000000     3.818000000
H     3.636000000    -8.905000000     2.391000000
O     0.381000000    -4.546000000     5.408000000
H    -0.408000000    -5.039000000     5.183000000
H     0.426000000    -3.853000000     4.749000000
O     1.531000000    -7.205000000    -1.180000000
H     1.166000000    -6.595000000    -0.539000000
H     2.277000000    -7.604000000    -0.732000000
O     2.051000000    -7.034000000     6.831000000
H     1.455000000    -6.686000000     6.167000000
H     2.102000000    -7.970000000     6.640000000
O     3.368000000    -3.613000000     8.581000000
H     3.827000000    -4.321000000     9.034000000
H     3.614000000    -3.718000000     7.662000000
O    -1.794000000    -3.951000000     8.262000000
H    -0.840000000    -3.880000000     8.243000000
H    -2.057000000    -3.434000000     9.024000000
O     4.223000000    -5.242000000     1.397000000
H     5.110000000    -5.063000000     1.087000000
H     3.844000000    -4.377000000     1.552000000
O     4.719000000    -6.720000000     3.867000000
H     4.919000000    -6.374000000     2.997000000
H     4.100000000    -6.091000000     4.238000000
O    -2.006000000    -6.397000000     5.009000000
H    -2.880000000    -6.118000000     4.738000000
H    -1.871000000    -7.232000000     4.560000000
