215
-1449.62362
C    -5.341000000    -0.314000000    -0.980000000
H    -5.251000000    -0.129000000    -2.047000000
C    -4.727000000     0.504000000    -0.033000000
C    -4.960000000     0.259000000     1.282000000
H    -4.442000000     0.854000000     2.030000000
C    -3.714000000     1.574000000    -0.388000000
O    -4.054000000     2.029000000    -1.707000000
H    -2.716000000     1.140000000    -0.228000000
O    -3.848000000     2.744000000     0.441000000
C    -2.689000000     3.442000000     0.878000000
C    -2.336000000     3.291000000     2.242000000
H    -2.880000000     2.640000000     2.922000000
C    -1.139000000     3.881000000     2.671000000
O    -0.522000000     3.380000000     3.815000000
C    -0.473000000     4.674000000     1.704000000
C     0.982000000     5.139000000     1.989000000
H     1.166000000     6.036000000     1.394000000
C     2.072000000     4.119000000     1.651000000
C     2.679000000     4.271000000     0.410000000
H     2.356000000     5.116000000    -0.193000000
H     1.106000000     5.406000000     3.041000000
C    -0.944000000     4.900000000     0.400000000
H    -0.341000000     5.465000000    -0.307000000
C    -2.093000000     4.291000000    -0.018000000
C    -2.655000000     4.609000000    -1.476000000
H    -2.356000000     5.601000000    -1.822000000
H    -3.745000000     4.554000000    -1.443000000
C    -2.207000000     3.438000000    -2.358000000
C    -0.969000000     3.523000000    -2.982000000
H    -0.298000000     4.338000000    -2.723000000
C    -2.968000000     2.341000000    -2.560000000
C    -2.555000000     1.346000000    -3.470000000
H    -3.171000000     0.454000000    -3.546000000
C    -1.416000000     1.582000000    -4.211000000
O    -0.920000000     0.560000000    -4.978000000
C     0.088000000    -0.286000000    -4.391000000
C    -0.184000000    -1.784000000    -4.513000000
C     0.876000000    -2.686000000    -4.757000000
H     1.886000000    -2.407000000    -5.045000000
C    -1.450000000    -2.253000000    -4.122000000
H    -2.244000000    -1.634000000    -3.714000000
O     1.399000000     0.146000000    -4.823000000
H     0.018000000    -0.151000000    -3.302000000
C    -0.582000000     2.672000000    -3.999000000
C     0.676000000     2.973000000    -4.732000000
H     0.881000000     4.046000000    -4.709000000
H     0.554000000     2.537000000    -5.726000000
C     1.879000000     2.371000000    -3.990000000
C     2.569000000     3.182000000    -3.113000000
H     2.448000000     4.255000000    -2.993000000
C     2.118000000     1.013000000    -4.099000000
C     3.079000000     0.422000000    -3.348000000
H     3.332000000    -0.631000000    -3.443000000
C     3.777000000     1.174000000    -2.410000000
O     4.696000000     0.539000000    -1.645000000
C     4.235000000     0.195000000    -0.372000000
C     4.503000000    -1.235000000     0.134000000
C     4.322000000    -2.318000000    -0.681000000
H     3.926000000    -2.207000000    -1.687000000
C     4.773000000    -1.439000000     1.478000000
H     4.793000000    -0.580000000     2.143000000
O     4.762000000     1.202000000     0.477000000
H     3.145000000     0.306000000    -0.460000000
C     3.512000000     2.505000000    -2.285000000
C     4.333000000     3.392000000    -1.281000000
H     4.311000000     4.435000000    -1.605000000
H     5.376000000     3.078000000    -1.199000000
C     3.574000000     3.313000000     0.012000000
C     3.848000000     2.181000000     0.812000000
C     3.343000000     2.120000000     2.106000000
H     3.725000000     1.365000000     2.788000000
C     2.399000000     3.070000000     2.518000000
O     1.774000000     2.901000000     3.747000000
C     0.445000000     2.340000000     3.627000000
H     0.293000000     1.947000000     2.611000000
C     0.201000000     1.140000000     4.533000000
C    -1.140000000     1.002000000     4.994000000
H    -1.907000000     1.737000000     4.765000000
C     1.203000000     0.221000000     4.815000000
H     2.178000000     0.236000000     4.336000000
C     0.824000000    -0.811000000     5.718000000
O     1.694000000    -1.845000000     5.961000000
C    -0.473000000    -0.886000000     6.241000000
H    -0.764000000    -1.673000000     6.933000000
C    -1.430000000     0.061000000     5.912000000
O    -2.645000000    -0.128000000     6.493000000
C    -3.776000000     0.190000000     5.804000000
C    -4.244000000    -0.804000000     4.864000000
H    -3.604000000    -1.653000000     4.638000000
C    -4.584000000     1.234000000     6.099000000
H    -4.339000000     1.905000000     6.919000000
C    -5.764000000     1.494000000     5.413000000
H    -6.384000000     2.297000000     5.802000000
C    -6.140000000     0.635000000     4.410000000
H    -7.020000000     0.888000000     3.823000000
C    -5.399000000    -0.491000000     4.148000000
O    -5.852000000    -1.214000000     3.051000000
C    -5.823000000    -0.776000000     1.737000000
C    -6.469000000    -1.509000000     0.719000000
H    -7.126000000    -2.317000000     1.030000000
C    -6.208000000    -1.278000000    -0.625000000
O    -6.775000000    -2.065000000    -1.637000000
C    -6.074000000    -2.613000000    -2.732000000
C    -4.860000000    -3.252000000    -2.573000000
H    -4.312000000    -3.315000000    -1.636000000
C    -6.478000000    -2.187000000    -4.029000000
H    -7.263000000    -1.436000000    -4.059000000
C    -5.686000000    -2.423000000    -5.149000000
H    -5.908000000    -1.930000000    -6.092000000
C    -4.567000000    -3.262000000    -5.004000000
H    -3.971000000    -3.513000000    -5.877000000
C    -4.103000000    -3.585000000    -3.710000000
O    -2.898000000    -4.174000000    -3.489000000
C    -1.711000000    -3.644000000    -4.031000000
C    -0.685000000    -4.535000000    -4.299000000
H    -0.891000000    -5.593000000    -4.437000000
C     0.607000000    -4.017000000    -4.616000000
O     1.579000000    -4.901000000    -5.028000000
C     2.814000000    -5.003000000    -4.278000000
C     2.860000000    -4.870000000    -2.930000000
H     1.966000000    -4.839000000    -2.312000000
C     4.044000000    -5.206000000    -4.956000000
H     3.938000000    -5.436000000    -6.013000000
C     5.279000000    -5.098000000    -4.285000000
H     6.265000000    -5.247000000    -4.717000000
C     5.246000000    -4.898000000    -2.952000000
H     6.137000000    -4.871000000    -2.330000000
C     4.071000000    -4.719000000    -2.273000000
O     4.093000000    -4.730000000    -0.929000000
C     4.497000000    -3.614000000    -0.203000000
C     4.907000000    -3.805000000     1.135000000
H     5.137000000    -4.808000000     1.484000000
C     4.962000000    -2.722000000     1.958000000
O     5.410000000    -2.924000000     3.278000000
C     4.941000000    -2.196000000     4.372000000
C     5.719000000    -1.453000000     5.250000000
H     6.769000000    -1.349000000     4.989000000
C     5.214000000    -1.085000000     6.476000000
H     5.832000000    -0.479000000     7.133000000
C     3.879000000    -1.134000000     6.651000000
H     3.518000000    -0.630000000     7.544000000
C     3.042000000    -1.826000000     5.745000000
C     3.610000000    -2.385000000     4.639000000
H     2.942000000    -2.975000000     4.016000000
C     0.496000000    -2.421000000     0.109000000
H     0.841000000    -3.424000000    -0.129000000
C     0.563000000    -1.443000000    -0.846000000
H     1.089000000    -1.611000000    -1.782000000
C     0.186000000    -0.160000000    -0.533000000
H     0.131000000     0.643000000    -1.260000000
C    -0.406000000     0.109000000     0.719000000
H    -0.829000000     1.081000000     0.962000000
C    -0.510000000    -0.960000000     1.653000000
H    -0.993000000    -0.769000000     2.608000000
C    -0.037000000    -2.243000000     1.374000000
C    -0.116000000    -3.336000000     2.399000000
O    -1.088000000    -3.441000000     3.163000000
O     0.734000000    -4.229000000     2.466000000
O     0.805000000    -8.227000000    -0.369000000
H     0.859000000    -7.598000000     0.351000000
H     0.911000000    -9.081000000     0.051000000
O    -3.498000000    -4.532000000     2.448000000
H    -4.185000000    -4.070000000     2.929000000
H    -2.682000000    -4.231000000     2.848000000
O    -4.352000000    -5.780000000     5.251000000
H    -4.839000000    -5.113000000     4.768000000
H    -3.512000000    -5.367000000     5.449000000
O     1.534000000    -3.971000000     8.035000000
H     1.339000000    -4.864000000     7.751000000
H     1.560000000    -3.462000000     7.224000000
O    -1.713000000    -6.191000000     6.898000000
H    -2.393000000    -6.836000000     6.705000000
H    -1.129000000    -6.635000000     7.513000000
O    -2.089000000    -3.756000000     5.441000000
H    -1.652000000    -3.714000000     4.590000000
H    -1.462000000    -4.202000000     6.010000000
O    -6.239000000    -4.000000000     3.453000000
H    -7.060000000    -4.299000000     3.060000000
H    -6.188000000    -3.072000000     3.224000000
O    -2.607000000    -8.802000000     2.562000000
H    -3.067000000    -8.620000000     1.742000000
H    -1.778000000    -8.331000000     2.481000000
O     0.596000000    -4.902000000     5.268000000
H     1.128000000    -4.193000000     4.905000000
H    -0.128000000    -4.997000000     4.649000000
O     3.089000000    -8.542000000     1.860000000
H     2.711000000    -8.626000000     2.735000000
H     2.779000000    -7.693000000     1.545000000
O     0.041000000    -7.481000000     2.655000000
H     0.073000000    -6.609000000     3.047000000
H     0.648000000    -8.002000000     3.180000000
O    -3.360000000    -8.352000000     5.197000000
H    -3.965000000    -7.610000000     5.201000000
H    -3.216000000    -8.538000000     4.269000000
O     2.255000000    -5.924000000     1.186000000
H     2.815000000    -5.323000000     0.695000000
H     1.734000000    -5.356000000     1.754000000
O    -2.610000000    -5.829000000     0.177000000
H    -1.839000000    -6.202000000     0.604000000
H    -2.944000000    -5.188000000     0.805000000
O     1.328000000    -1.093000000     8.657000000
H     1.802000000    -0.954000000     9.477000000
H     1.543000000    -1.991000000     8.406000000
O    -3.957000000    -3.564000000     7.685000000
H    -3.571000000    -3.691000000     6.819000000
H    -3.621000000    -2.715000000     7.974000000
O    -4.746000000    -6.844000000    -0.864000000
H    -5.145000000    -6.005000000    -1.096000000
H    -3.927000000    -6.607000000    -0.429000000
O     1.940000000    -6.566000000     6.973000000
H     1.460000000    -6.182000000     6.239000000
H     2.851000000    -6.582000000     6.680000000
O    -5.508000000    -7.418000000     2.415000000
H    -4.925000000    -6.658000000     2.396000000
H    -5.043000000    -8.088000000     1.915000000
