215
-1437.32076
C    -5.323000000    -0.261000000    -1.322000000
H    -5.481000000     0.053000000    -2.351000000
C    -4.648000000     0.565000000    -0.421000000
C    -4.641000000     0.191000000     0.994000000
H    -4.060000000     0.721000000     1.744000000
C    -3.825000000     1.778000000    -0.876000000
O    -4.063000000     2.214000000    -2.212000000
H    -2.785000000     1.421000000    -0.917000000
O    -3.943000000     2.828000000     0.096000000
C    -2.825000000     3.432000000     0.522000000
C    -2.358000000     3.165000000     1.814000000
H    -2.923000000     2.530000000     2.491000000
C    -1.105000000     3.522000000     2.224000000
O    -0.703000000     3.093000000     3.470000000
C    -0.351000000     4.335000000     1.436000000
C     0.921000000     4.931000000     1.925000000
H     1.060000000     5.882000000     1.406000000
C     2.173000000     4.135000000     1.805000000
C     2.968000000     4.221000000     0.615000000
H     2.674000000     4.936000000    -0.150000000
H     0.737000000     5.266000000     2.948000000
C    -0.850000000     4.688000000     0.166000000
H    -0.251000000     5.225000000    -0.566000000
C    -2.069000000     4.252000000    -0.322000000
C    -2.574000000     4.663000000    -1.661000000
H    -2.184000000     5.657000000    -1.891000000
H    -3.664000000     4.715000000    -1.617000000
C    -2.134000000     3.661000000    -2.677000000
C    -0.989000000     3.823000000    -3.377000000
H    -0.338000000     4.686000000    -3.260000000
C    -2.979000000     2.592000000    -2.946000000
C    -2.519000000     1.547000000    -3.750000000
H    -3.191000000     0.693000000    -3.742000000
C    -1.333000000     1.636000000    -4.398000000
O    -0.881000000     0.505000000    -5.030000000
C     0.010000000    -0.339000000    -4.339000000
C    -0.228000000    -1.772000000    -4.609000000
C     0.770000000    -2.797000000    -4.432000000
H     1.798000000    -2.521000000    -4.209000000
C    -1.566000000    -2.260000000    -4.771000000
H    -2.375000000    -1.553000000    -4.930000000
O     1.354000000    -0.010000000    -4.616000000
H    -0.129000000    -0.250000000    -3.251000000
C    -0.584000000     2.809000000    -4.243000000
C     0.884000000     2.904000000    -4.746000000
H     1.231000000     3.897000000    -5.039000000
H     1.027000000     2.342000000    -5.672000000
C     1.894000000     2.277000000    -3.784000000
C     2.645000000     3.076000000    -2.849000000
H     2.535000000     4.157000000    -2.808000000
C     2.091000000     0.868000000    -3.732000000
C     2.969000000     0.306000000    -2.829000000
H     3.108000000    -0.772000000    -2.824000000
C     3.740000000     1.043000000    -1.965000000
O     4.655000000     0.396000000    -1.157000000
C     4.437000000     0.216000000     0.261000000
C     4.793000000    -1.151000000     0.783000000
C     4.533000000    -2.260000000    -0.098000000
H     4.197000000    -2.030000000    -1.106000000
C     5.170000000    -1.343000000     2.077000000
H     5.360000000    -0.464000000     2.687000000
O     5.015000000     1.318000000     1.007000000
H     3.369000000     0.187000000     0.521000000
C     3.583000000     2.441000000    -2.054000000
C     4.433000000     3.249000000    -1.129000000
H     4.517000000     4.302000000    -1.405000000
H     5.457000000     2.892000000    -1.255000000
C     3.949000000     3.284000000     0.351000000
C     4.286000000     2.357000000     1.333000000
C     3.503000000     2.209000000     2.497000000
H     3.688000000     1.369000000     3.161000000
C     2.464000000     3.129000000     2.738000000
O     1.595000000     2.799000000     3.805000000
C     0.359000000     2.114000000     3.528000000
H     0.459000000     1.560000000     2.582000000
C     0.076000000     1.058000000     4.588000000
C    -1.257000000     0.864000000     4.967000000
H    -1.991000000     1.579000000     4.606000000
C     1.025000000     0.164000000     4.935000000
H     2.027000000     0.243000000     4.522000000
C     0.721000000    -0.887000000     5.743000000
O     1.615000000    -1.918000000     6.061000000
C    -0.568000000    -0.972000000     6.292000000
H    -0.790000000    -1.708000000     7.060000000
C    -1.554000000    -0.056000000     5.886000000
O    -2.799000000    -0.098000000     6.420000000
C    -3.995000000    -0.068000000     5.728000000
C    -4.106000000    -0.735000000     4.542000000
H    -3.306000000    -1.379000000     4.186000000
C    -4.892000000     0.968000000     6.004000000
H    -4.611000000     1.705000000     6.753000000
C    -6.074000000     1.087000000     5.297000000
H    -6.866000000     1.757000000     5.623000000
C    -6.316000000     0.198000000     4.165000000
H    -7.199000000     0.395000000     3.563000000
C    -5.218000000    -0.581000000     3.743000000
O    -5.320000000    -1.456000000     2.659000000
C    -5.315000000    -0.958000000     1.368000000
C    -5.935000000    -1.781000000     0.416000000
H    -6.395000000    -2.699000000     0.772000000
C    -5.926000000    -1.405000000    -0.945000000
O    -6.575000000    -2.252000000    -1.833000000
C    -5.945000000    -2.328000000    -3.146000000
C    -4.759000000    -2.961000000    -3.366000000
H    -4.146000000    -3.358000000    -2.561000000
C    -6.658000000    -1.805000000    -4.216000000
H    -7.629000000    -1.344000000    -4.054000000
C    -6.326000000    -2.180000000    -5.520000000
H    -6.866000000    -1.847000000    -6.402000000
C    -5.142000000    -2.870000000    -5.763000000
H    -4.876000000    -3.310000000    -6.721000000
C    -4.360000000    -3.284000000    -4.660000000
O    -3.206000000    -4.029000000    -4.825000000
C    -1.887000000    -3.570000000    -4.723000000
C    -0.912000000    -4.522000000    -4.597000000
H    -1.189000000    -5.572000000    -4.651000000
C     0.428000000    -4.180000000    -4.416000000
O     1.424000000    -5.187000000    -4.272000000
C     2.686000000    -4.874000000    -3.740000000
C     2.862000000    -4.886000000    -2.355000000
H     2.062000000    -5.161000000    -1.672000000
C     3.758000000    -4.612000000    -4.566000000
H     3.452000000    -4.596000000    -5.609000000
C     5.062000000    -4.324000000    -4.053000000
H     5.929000000    -4.340000000    -4.708000000
C     5.225000000    -4.268000000    -2.656000000
H     6.204000000    -4.132000000    -2.205000000
C     4.108000000    -4.564000000    -1.809000000
O     4.270000000    -4.676000000    -0.443000000
C     4.723000000    -3.605000000     0.349000000
C     5.207000000    -3.771000000     1.652000000
H     5.337000000    -4.789000000     2.010000000
C     5.400000000    -2.678000000     2.493000000
O     5.816000000    -2.849000000     3.772000000
C     5.110000000    -2.327000000     4.834000000
C     5.802000000    -1.561000000     5.857000000
H     6.882000000    -1.446000000     5.894000000
C     5.052000000    -1.001000000     6.862000000
H     5.529000000    -0.409000000     7.639000000
C     3.666000000    -1.148000000     6.944000000
H     3.142000000    -0.775000000     7.820000000
C     2.999000000    -1.804000000     5.933000000
C     3.678000000    -2.397000000     4.816000000
H     3.092000000    -2.986000000     4.115000000
C     1.009000000    -2.073000000     0.550000000
H     1.671000000    -2.871000000     0.225000000
C     0.820000000    -0.969000000    -0.333000000
H     1.411000000    -0.983000000    -1.244000000
C    -0.245000000    -0.053000000    -0.067000000
H    -0.405000000     0.797000000    -0.709000000
C    -1.066000000    -0.245000000     0.995000000
H    -1.806000000     0.511000000     1.243000000
C    -0.718000000    -1.234000000     1.932000000
H    -1.298000000    -1.266000000     2.851000000
C     0.241000000    -2.238000000     1.703000000
C     0.375000000    -3.459000000     2.512000000
O    -0.575000000    -3.701000000     3.280000000
O     1.176000000    -4.283000000     2.252000000
O     1.971000000    -6.363000000     0.817000000
H     1.877000000    -5.456000000     1.109000000
H     2.117000000    -6.859000000     1.623000000
O    -2.902000000    -3.722000000     1.565000000
H    -3.713000000    -3.240000000     1.729000000
H    -2.445000000    -3.715000000     2.406000000
O    -3.086000000    -7.407000000     6.013000000
H    -2.417000000    -7.197000000     5.361000000
H    -2.590000000    -7.636000000     6.799000000
O     0.308000000    -5.194000000     8.043000000
H    -0.458000000    -5.760000000     8.134000000
H     0.587000000    -5.312000000     7.135000000
O    -0.956000000    -8.348000000    -1.466000000
H    -0.038000000    -8.162000000    -1.661000000
H    -1.085000000    -8.010000000    -0.580000000
O    -1.853000000    -3.857000000     6.060000000
H    -1.646000000    -3.897000000     5.126000000
H    -1.877000000    -4.773000000     6.338000000
O     0.797000000    -8.071000000     4.963000000
H     0.696000000    -7.902000000     5.900000000
H     1.673000000    -8.446000000     4.880000000
O    -6.322000000    -4.786000000     2.915000000
H    -5.606000000    -4.495000000     3.480000000
H    -6.954000000    -4.067000000     2.940000000
O    -0.594000000    -8.378000000     2.190000000
H    -1.170000000    -7.614000000     2.214000000
H    -0.135000000    -8.357000000     3.030000000
O     1.098000000    -4.768000000     5.439000000
H     0.676000000    -4.328000000     4.701000000
H     1.637000000    -4.090000000     5.847000000
O     5.309000000    -6.190000000     4.802000000
H     4.966000000    -5.988000000     5.672000000
H     4.531000000    -6.265000000     4.249000000
O    -1.242000000    -6.032000000     4.157000000
H    -1.032000000    -5.139000000     3.882000000
H    -0.391000000    -6.435000000     4.331000000
O     4.988000000    -7.228000000    -0.005000000
H     4.696000000    -7.611000000    -0.832000000
H     4.928000000    -6.283000000    -0.144000000
O     2.830000000    -6.198000000     3.647000000
H     2.390000000    -5.531000000     3.120000000
H     2.117000000    -6.692000000     4.052000000
O    -1.185000000    -5.624000000     0.635000000
H    -0.351000000    -5.584000000     1.103000000
H    -1.697000000    -4.900000000     0.996000000
O    -3.540000000    -2.614000000     7.889000000
H    -2.874000000    -2.786000000     7.223000000
H    -3.238000000    -1.819000000     8.329000000
O    -3.405000000    -7.150000000     1.039000000
H    -4.139000000    -7.131000000     0.425000000
H    -2.729000000    -6.616000000     0.621000000
O    -2.469000000    -5.839000000    -1.777000000
H    -1.882000000    -5.804000000    -1.021000000
H    -2.044000000    -5.291000000    -2.436000000
O     2.091000000    -8.557000000    -0.950000000
H     2.870000000    -8.335000000    -1.459000000
H     1.966000000    -7.811000000    -0.364000000
