215
-1469.07950
C    -5.283000000     0.748000000    -0.674000000
H    -5.083000000     0.753000000    -1.742000000
C    -4.628000000     1.717000000     0.097000000
C    -4.817000000     1.661000000     1.498000000
H    -4.310000000     2.289000000     2.226000000
C    -3.621000000     2.667000000    -0.545000000
O    -3.866000000     2.988000000    -1.947000000
H    -2.719000000     2.039000000    -0.502000000
O    -3.496000000     3.887000000     0.202000000
C    -2.201000000     4.228000000     0.462000000
C    -1.704000000     3.865000000     1.728000000
H    -2.282000000     3.290000000     2.447000000
C    -0.347000000     4.086000000     2.017000000
O     0.123000000     3.606000000     3.237000000
C     0.512000000     4.676000000     1.092000000
C     2.023000000     4.993000000     1.256000000
H     2.339000000     5.682000000     0.469000000
C     2.975000000     3.765000000     1.082000000
C     3.626000000     3.591000000    -0.129000000
H     3.527000000     4.425000000    -0.819000000
H     2.176000000     5.478000000     2.222000000
C    -0.076000000     5.088000000    -0.160000000
H     0.579000000     5.430000000    -0.957000000
C    -1.426000000     4.870000000    -0.466000000
C    -1.926000000     5.123000000    -1.838000000
H    -1.341000000     5.916000000    -2.310000000
H    -2.967000000     5.440000000    -1.927000000
C    -1.765000000     3.831000000    -2.635000000
C    -0.626000000     3.627000000    -3.402000000
H     0.199000000     4.325000000    -3.279000000
C    -2.738000000     2.837000000    -2.680000000
C    -2.507000000     1.671000000    -3.434000000
H    -3.351000000     0.990000000    -3.510000000
C    -1.281000000     1.444000000    -3.993000000
O    -1.161000000     0.158000000    -4.520000000
C    -0.228000000    -0.778000000    -3.934000000
C    -0.732000000    -2.186000000    -4.069000000
C     0.104000000    -3.293000000    -4.246000000
H     1.173000000    -3.208000000    -4.425000000
C    -2.113000000    -2.321000000    -3.923000000
H    -2.818000000    -1.498000000    -3.840000000
O     1.068000000    -0.598000000    -4.566000000
H     0.051000000    -0.530000000    -2.899000000
C    -0.322000000     2.409000000    -4.044000000
C     1.000000000     2.241000000    -4.889000000
H     1.467000000     3.222000000    -5.007000000
H     0.737000000     1.822000000    -5.863000000
C     1.988000000     1.494000000    -4.033000000
C     3.009000000     2.142000000    -3.336000000
H     2.999000000     3.229000000    -3.331000000
C     2.046000000     0.123000000    -4.051000000
C     2.982000000    -0.588000000    -3.364000000
H     2.973000000    -1.675000000    -3.363000000
C     3.984000000     0.038000000    -2.640000000
O     4.734000000    -0.747000000    -1.792000000
C     4.263000000    -0.719000000    -0.428000000
C     4.244000000    -2.156000000     0.170000000
C     3.709000000    -3.207000000    -0.556000000
H     3.333000000    -3.136000000    -1.573000000
C     4.935000000    -2.377000000     1.404000000
H     5.362000000    -1.605000000     2.040000000
O     4.972000000     0.141000000     0.400000000
H     3.203000000    -0.432000000    -0.497000000
C     3.981000000     1.438000000    -2.610000000
C     4.962000000     2.255000000    -1.772000000
H     5.096000000     3.259000000    -2.182000000
H     5.936000000     1.770000000    -1.690000000
C     4.318000000     2.403000000    -0.396000000
C     4.429000000     1.396000000     0.627000000
C     3.851000000     1.591000000     1.857000000
H     3.840000000     0.848000000     2.651000000
C     3.079000000     2.729000000     2.048000000
O     2.303000000     2.730000000     3.245000000
C     0.894000000     2.327000000     3.188000000
H     0.639000000     1.766000000     2.278000000
C     0.593000000     1.463000000     4.407000000
C    -0.619000000     1.695000000     5.154000000
H    -1.177000000     2.620000000     5.029000000
C     1.382000000     0.362000000     4.682000000
H     2.182000000     0.178000000     3.969000000
C     0.882000000    -0.707000000     5.462000000
O     1.665000000    -1.840000000     5.666000000
C    -0.323000000    -0.507000000     6.100000000
H    -0.675000000    -1.383000000     6.637000000
C    -1.072000000     0.648000000     5.929000000
O    -2.227000000     0.784000000     6.657000000
C    -3.330000000     1.316000000     6.043000000
C    -3.975000000     0.660000000     5.029000000
H    -3.675000000    -0.325000000     4.682000000
C    -3.799000000     2.506000000     6.484000000
H    -3.384000000     2.924000000     7.398000000
C    -4.716000000     3.232000000     5.721000000
H    -5.021000000     4.230000000     6.024000000
C    -5.339000000     2.617000000     4.670000000
H    -6.068000000     3.143000000     4.058000000
C    -4.988000000     1.284000000     4.338000000
O    -5.719000000     0.573000000     3.387000000
C    -5.613000000     0.662000000     2.026000000
C    -6.251000000    -0.302000000     1.221000000
H    -6.880000000    -1.125000000     1.553000000
C    -6.066000000    -0.279000000    -0.129000000
O    -6.736000000    -1.176000000    -0.973000000
C    -6.377000000    -1.479000000    -2.222000000
C    -5.314000000    -2.396000000    -2.418000000
H    -4.874000000    -2.914000000    -1.570000000
C    -7.082000000    -1.028000000    -3.346000000
H    -7.964000000    -0.399000000    -3.258000000
C    -6.794000000    -1.465000000    -4.616000000
H    -7.363000000    -1.039000000    -5.438000000
C    -5.785000000    -2.417000000    -4.765000000
H    -5.521000000    -2.867000000    -5.719000000
C    -5.037000000    -2.843000000    -3.667000000
O    -4.041000000    -3.772000000    -3.749000000
C    -2.686000000    -3.575000000    -3.989000000
C    -1.896000000    -4.754000000    -4.150000000
H    -2.364000000    -5.726000000    -4.017000000
C    -0.514000000    -4.558000000    -4.261000000
O     0.296000000    -5.702000000    -4.362000000
C     1.564000000    -5.694000000    -3.768000000
C     1.754000000    -5.710000000    -2.402000000
H     0.891000000    -5.557000000    -1.760000000
C     2.695000000    -5.751000000    -4.613000000
H     2.629000000    -5.652000000    -5.694000000
C     3.991000000    -5.801000000    -4.031000000
H     4.903000000    -5.883000000    -4.617000000
C     4.123000000    -5.679000000    -2.632000000
H     5.088000000    -5.692000000    -2.132000000
C     3.011000000    -5.573000000    -1.866000000
O     3.089000000    -5.480000000    -0.461000000
C     3.715000000    -4.449000000     0.088000000
C     4.196000000    -4.640000000     1.356000000
H     4.094000000    -5.652000000     1.740000000
C     4.783000000    -3.593000000     2.045000000
O     5.220000000    -3.747000000     3.286000000
C     4.843000000    -2.999000000     4.306000000
C     5.660000000    -2.679000000     5.364000000
H     6.708000000    -2.969000000     5.349000000
C     5.197000000    -2.039000000     6.506000000
H     5.744000000    -1.903000000     7.435000000
C     3.810000000    -1.713000000     6.581000000
H     3.345000000    -1.381000000     7.506000000
C     2.995000000    -1.926000000     5.484000000
C     3.477000000    -2.588000000     4.364000000
H     2.750000000    -3.086000000     3.727000000
C     0.604000000    -1.572000000     0.358000000
H     1.334000000    -2.307000000     0.028000000
C     0.465000000    -0.376000000    -0.321000000
H     1.151000000    -0.130000000    -1.128000000
C    -0.352000000     0.617000000     0.138000000
H    -0.332000000     1.586000000    -0.346000000
C    -1.064000000     0.353000000     1.302000000
H    -1.740000000     1.082000000     1.742000000
C    -1.110000000    -0.953000000     1.875000000
H    -1.748000000    -1.147000000     2.734000000
C    -0.237000000    -1.910000000     1.433000000
C    -0.058000000    -3.198000000     2.192000000
O    -0.807000000    -3.508000000     3.072000000
O     0.984000000    -3.861000000     2.008000000
O     1.314000000    -8.868000000    -0.063000000
H     2.025000000    -9.323000000    -0.514000000
H     1.319000000    -9.234000000     0.822000000
O    -0.046000000    -4.426000000     5.452000000
H    -0.470000000    -4.028000000     4.691000000
H     0.509000000    -5.114000000     5.084000000
O    -1.913000000    -6.562000000    -1.091000000
H    -1.431000000    -6.592000000    -0.265000000
H    -1.906000000    -5.637000000    -1.338000000
O    -3.291000000    -2.376000000     7.344000000
H    -3.202000000    -2.418000000     6.392000000
H    -2.852000000    -1.562000000     7.590000000
O    -2.890000000    -5.395000000     5.922000000
H    -3.444000000    -6.165000000     6.048000000
H    -2.169000000    -5.514000000     6.541000000
O     2.413000000    -5.151000000     8.587000000
H     1.713000000    -4.698000000     8.117000000
H     2.218000000    -4.998000000     9.512000000
O    -1.694000000    -8.909000000     5.689000000
H    -1.737000000    -8.628000000     4.775000000
H    -2.249000000    -9.689000000     5.727000000
O    -4.496000000    -4.179000000     2.259000000
H    -5.138000000    -4.258000000     2.965000000
H    -3.769000000    -3.695000000     2.650000000
O     3.973000000    -6.498000000     4.590000000
H     3.876000000    -6.711000000     5.518000000
H     3.157000000    -6.052000000     4.360000000
O    -5.663000000    -5.245000000    -0.157000000
H    -5.815000000    -6.116000000     0.210000000
H    -5.339000000    -4.728000000     0.580000000
O    -4.390000000    -7.717000000     2.961000000
H    -4.701000000    -7.782000000     2.058000000
H    -3.719000000    -7.035000000     2.936000000
O    -3.153000000    -3.008000000     4.377000000
H    -3.046000000    -3.861000000     4.798000000
H    -2.319000000    -2.855000000     3.931000000
O    -1.761000000    -6.178000000     2.745000000
H    -1.690000000    -5.238000000     2.913000000
H    -1.096000000    -6.354000000     2.080000000
O     1.496000000    -5.959000000     3.984000000
H     1.280000000    -5.243000000     3.387000000
H     1.038000000    -6.718000000     3.624000000
O    -2.602000000    -0.727000000    -0.915000000
H    -2.688000000    -1.680000000    -0.939000000
H    -1.724000000    -0.574000000    -0.567000000
O    -0.243000000    -3.790000000     8.233000000
H     0.058000000    -2.926000000     8.515000000
H    -0.494000000    -3.669000000     7.317000000
O    -0.700000000    -8.723000000    -2.037000000
H    -0.086000000    -8.933000000    -1.334000000
H    -1.153000000    -7.937000000    -1.733000000
O     2.505000000    -7.386000000     7.054000000
H     2.777000000    -6.735000000     7.701000000
H     1.553000000    -7.291000000     7.005000000
O     0.262000000    -6.235000000     0.919000000
H     0.791000000    -6.981000000     0.637000000
H     0.900000000    -5.546000000     1.108000000
