215
-1427.48280
C    -5.360000000     1.353000000    -0.988000000
H    -5.065000000     1.322000000    -2.033000000
C    -4.558000000     2.121000000    -0.209000000
C    -4.836000000     2.200000000     1.110000000
H    -4.355000000     2.852000000     1.835000000
C    -3.313000000     2.859000000    -0.806000000
O    -3.437000000     2.987000000    -2.244000000
H    -2.470000000     2.210000000    -0.529000000
O    -3.066000000     4.087000000    -0.179000000
C    -1.769000000     4.402000000     0.100000000
C    -1.335000000     4.016000000     1.327000000
H    -2.028000000     3.724000000     2.113000000
C     0.039000000     4.194000000     1.618000000
O     0.482000000     3.672000000     2.918000000
C     1.054000000     4.549000000     0.721000000
C     2.558000000     4.690000000     1.046000000
H     2.913000000     5.491000000     0.393000000
C     3.401000000     3.459000000     0.930000000
C     4.111000000     3.253000000    -0.293000000
H     4.062000000     3.916000000    -1.152000000
H     2.777000000     5.146000000     2.013000000
C     0.571000000     4.952000000    -0.516000000
H     1.288000000     5.320000000    -1.246000000
C    -0.810000000     4.811000000    -0.838000000
C    -1.270000000     5.020000000    -2.241000000
H    -0.671000000     5.796000000    -2.722000000
H    -2.297000000     5.389000000    -2.270000000
C    -1.240000000     3.787000000    -3.094000000
C    -0.054000000     3.390000000    -3.656000000
H     0.748000000     4.124000000    -3.649000000
C    -2.337000000     2.829000000    -3.036000000
C    -2.181000000     1.630000000    -3.646000000
H    -3.023000000     0.948000000    -3.731000000
C    -0.962000000     1.217000000    -4.206000000
O    -0.817000000     0.026000000    -4.814000000
C    -0.117000000    -0.989000000    -4.125000000
C    -0.855000000    -2.314000000    -4.142000000
C    -0.118000000    -3.494000000    -3.893000000
H     0.965000000    -3.583000000    -3.908000000
C    -2.243000000    -2.270000000    -4.186000000
H    -2.829000000    -1.356000000    -4.220000000
O     1.201000000    -1.108000000    -4.603000000
H     0.035000000    -0.774000000    -3.057000000
C     0.112000000     2.148000000    -4.283000000
C     1.486000000     1.824000000    -4.918000000
H     1.895000000     2.775000000    -5.263000000
H     1.315000000     1.226000000    -5.816000000
C     2.403000000     0.956000000    -4.105000000
C     3.497000000     1.528000000    -3.533000000
H     3.674000000     2.595000000    -3.645000000
C     2.180000000    -0.446000000    -3.945000000
C     2.934000000    -1.162000000    -3.091000000
H     2.654000000    -2.203000000    -2.953000000
C     3.920000000    -0.495000000    -2.388000000
O     4.592000000    -1.373000000    -1.556000000
C     4.164000000    -1.161000000    -0.152000000
C     3.920000000    -2.448000000     0.537000000
C     3.359000000    -3.555000000    -0.098000000
H     3.220000000    -3.503000000    -1.175000000
C     4.306000000    -2.614000000     1.868000000
H     4.701000000    -1.751000000     2.397000000
O     5.227000000    -0.278000000     0.426000000
H     3.306000000    -0.476000000    -0.210000000
C     4.258000000     0.880000000    -2.510000000
C     5.298000000     1.640000000    -1.793000000
H     5.475000000     2.570000000    -2.338000000
H     6.264000000     1.139000000    -1.711000000
C     4.792000000     2.030000000    -0.412000000
C     4.794000000     1.035000000     0.601000000
C     4.093000000     1.299000000     1.764000000
H     3.974000000     0.491000000     2.481000000
C     3.486000000     2.553000000     1.998000000
O     2.729000000     2.647000000     3.124000000
C     1.268000000     2.442000000     3.022000000
H     1.062000000     1.839000000     2.125000000
C     0.694000000     1.582000000     4.167000000
C    -0.644000000     1.582000000     4.469000000
H    -1.338000000     2.131000000     3.837000000
C     1.531000000     0.902000000     4.980000000
H     2.607000000     1.019000000     5.086000000
C     1.026000000     0.087000000     5.982000000
O     1.813000000    -0.784000000     6.586000000
C    -0.302000000    -0.015000000     6.167000000
H    -0.631000000    -0.646000000     6.988000000
C    -1.174000000     0.775000000     5.411000000
O    -2.527000000     0.613000000     5.626000000
C    -3.483000000     1.489000000     5.308000000
C    -4.448000000     1.119000000     4.301000000
H    -4.239000000     0.204000000     3.752000000
C    -3.801000000     2.548000000     6.100000000
H    -3.122000000     2.770000000     6.920000000
C    -4.961000000     3.331000000     5.888000000
H    -4.987000000     4.278000000     6.419000000
C    -5.791000000     3.051000000     4.780000000
H    -6.694000000     3.626000000     4.593000000
C    -5.553000000     1.911000000     4.008000000
O    -6.375000000     1.639000000     2.962000000
C    -5.960000000     1.526000000     1.613000000
C    -6.818000000     0.752000000     0.780000000
H    -7.667000000     0.301000000     1.287000000
C    -6.450000000     0.627000000    -0.571000000
O    -7.196000000    -0.169000000    -1.400000000
C    -6.571000000    -0.692000000    -2.541000000
C    -5.847000000    -1.853000000    -2.484000000
H    -5.712000000    -2.305000000    -1.505000000
C    -6.777000000    -0.012000000    -3.742000000
H    -7.394000000     0.883000000    -3.724000000
C    -6.112000000    -0.448000000    -4.942000000
H    -6.387000000    -0.030000000    -5.907000000
C    -5.274000000    -1.565000000    -4.859000000
H    -4.791000000    -1.901000000    -5.773000000
C    -5.127000000    -2.222000000    -3.623000000
O    -4.266000000    -3.291000000    -3.527000000
C    -2.901000000    -3.386000000    -3.848000000
C    -2.272000000    -4.608000000    -3.722000000
H    -2.792000000    -5.544000000    -3.532000000
C    -0.900000000    -4.654000000    -3.902000000
O    -0.367000000    -5.885000000    -3.644000000
C     0.888000000    -6.164000000    -3.178000000
C     1.377000000    -5.561000000    -2.043000000
H     0.719000000    -4.919000000    -1.463000000
C     1.527000000    -7.159000000    -3.822000000
H     1.176000000    -7.459000000    -4.806000000
C     2.810000000    -7.488000000    -3.362000000
H     3.460000000    -8.220000000    -3.835000000
C     3.230000000    -7.011000000    -2.096000000
H     4.038000000    -7.503000000    -1.561000000
C     2.475000000    -6.088000000    -1.388000000
O     2.823000000    -5.905000000    -0.054000000
C     3.214000000    -4.716000000     0.547000000
C     3.507000000    -4.831000000     1.894000000
H     3.366000000    -5.811000000     2.343000000
C     3.944000000    -3.727000000     2.611000000
O     4.369000000    -3.848000000     3.944000000
C     4.236000000    -2.899000000     4.930000000
C     5.384000000    -2.768000000     5.736000000
H     6.226000000    -3.422000000     5.522000000
C     5.386000000    -1.884000000     6.781000000
H     6.283000000    -1.853000000     7.394000000
C     4.141000000    -1.201000000     7.049000000
H     4.043000000    -0.539000000     7.906000000
C     3.018000000    -1.302000000     6.201000000
C     3.074000000    -2.108000000     5.080000000
H     2.168000000    -2.305000000     4.512000000
C     0.266000000    -2.172000000     0.963000000
H     1.110000000    -2.832000000     0.778000000
C    -0.119000000    -1.422000000    -0.065000000
H     0.360000000    -1.563000000    -1.030000000
C    -1.088000000    -0.437000000     0.113000000
H    -1.372000000     0.144000000    -0.683000000
C    -1.606000000    -0.274000000     1.378000000
H    -2.322000000     0.540000000     1.448000000
C    -1.295000000    -1.119000000     2.402000000
H    -1.845000000    -0.991000000     3.331000000
C    -0.306000000    -2.044000000     2.246000000
C    -0.088000000    -3.058000000     3.384000000
O    -0.565000000    -2.867000000     4.497000000
O     0.265000000    -4.212000000     3.117000000
O    -2.546000000    -4.759000000     2.753000000
H    -2.633000000    -5.707000000     2.854000000
H    -1.734000000    -4.544000000     3.211000000
O    -0.333000000    -9.963000000     3.533000000
H    -0.245000000    -9.218000000     4.127000000
H    -1.264000000   -10.184000000     3.563000000
O     0.840000000    -4.685000000     6.176000000
H     0.275000000    -4.311000000     5.499000000
H     0.522000000    -4.300000000     6.993000000
O    -3.124000000    -5.670000000    -0.250000000
H    -2.239000000    -5.596000000     0.107000000
H    -3.595000000    -4.924000000     0.122000000
O    -4.038000000    -1.448000000     7.402000000
H    -3.732000000    -1.218000000     6.525000000
H    -3.541000000    -0.877000000     7.987000000
O    -3.324000000    -5.472000000     7.819000000
H    -3.288000000    -6.143000000     7.137000000
H    -2.711000000    -4.798000000     7.524000000
O    -4.509000000    -4.063000000     5.277000000
H    -3.623000000    -3.756000000     5.471000000
H    -4.448000000    -5.017000000     5.332000000
O     3.422000000    -5.625000000     5.539000000
H     2.564000000    -5.378000000     5.887000000
H     3.662000000    -4.901000000     4.960000000
O    -4.031000000    -6.857000000     5.110000000
H    -4.718000000    -7.520000000     5.187000000
H    -3.389000000    -7.246000000     4.516000000
O    -1.954000000    -3.478000000     6.666000000
H    -1.286000000    -3.238000000     7.309000000
H    -1.620000000    -3.139000000     5.836000000
O    -1.994000000    -7.351000000     3.069000000
H    -1.065000000    -7.225000000     3.262000000
H    -2.007000000    -8.014000000     2.379000000
O     2.722000000    -8.422000000     4.788000000
H     3.372000000    -7.734000000     4.937000000
H     2.071000000    -8.016000000     4.216000000
O    -5.475000000    -1.991000000     3.774000000
H    -5.173000000    -2.768000000     4.245000000
H    -4.988000000    -2.008000000     2.950000000
O     0.415000000    -6.474000000     4.201000000
H     0.637000000    -5.799000000     3.559000000
H     0.776000000    -6.148000000     5.025000000
O    -3.793000000    -2.676000000     1.497000000
H    -3.440000000    -3.529000000     1.749000000
H    -3.036000000    -2.190000000     1.171000000
O     4.129000000    -6.148000000     8.029000000
H     3.747000000    -5.990000000     7.165000000
H     3.509000000    -5.752000000     8.641000000
O     0.163000000    -2.972000000     8.754000000
H     0.063000000    -3.162000000     9.687000000
H     0.962000000    -2.449000000     8.700000000
O    -6.940000000    -5.135000000     3.652000000
H    -7.566000000    -4.719000000     4.245000000
H    -6.085000000    -4.824000000     3.949000000
O    -0.448000000    -5.769000000     0.977000000
H     0.459000000    -6.053000000     0.870000000
H    -0.422000000    -5.158000000     1.714000000
