215
-1440.03467
C    -4.737000000    -0.334000000    -0.259000000
H    -4.887000000    -0.245000000    -1.332000000
C    -4.103000000     0.699000000     0.422000000
C    -3.937000000     0.625000000     1.812000000
H    -3.422000000     1.473000000     2.255000000
C    -3.554000000     1.932000000    -0.318000000
O    -4.085000000     1.998000000    -1.652000000
H    -2.484000000     1.684000000    -0.392000000
O    -3.757000000     3.186000000     0.531000000
C    -2.698000000     4.000000000     0.694000000
C    -2.000000000     3.958000000     1.856000000
H    -2.493000000     3.439000000     2.675000000
C    -0.722000000     4.489000000     1.999000000
O     0.000000000     4.177000000     3.104000000
C    -0.092000000     5.044000000     0.850000000
C     1.367000000     5.453000000     0.753000000
H     1.413000000     5.990000000    -0.196000000
C     2.472000000     4.332000000     0.715000000
C     3.022000000     4.077000000    -0.566000000
H     2.623000000     4.660000000    -1.391000000
H     1.742000000     6.251000000     1.397000000
C    -0.797000000     5.136000000    -0.392000000
H    -0.320000000     5.419000000    -1.326000000
C    -2.049000000     4.528000000    -0.458000000
C    -2.789000000     4.588000000    -1.784000000
H    -2.453000000     5.511000000    -2.261000000
H    -3.879000000     4.613000000    -1.724000000
C    -2.391000000     3.444000000    -2.682000000
C    -1.273000000     3.428000000    -3.521000000
H    -0.728000000     4.367000000    -3.581000000
C    -3.189000000     2.274000000    -2.613000000
C    -2.847000000     1.161000000    -3.397000000
H    -3.384000000     0.216000000    -3.391000000
C    -1.749000000     1.133000000    -4.168000000
O    -1.451000000    -0.094000000    -4.686000000
C    -0.473000000    -0.893000000    -4.001000000
C    -0.941000000    -2.352000000    -4.118000000
C    -0.046000000    -3.360000000    -3.960000000
H     0.961000000    -3.124000000    -3.627000000
C    -2.288000000    -2.619000000    -4.213000000
H    -3.056000000    -1.855000000    -4.306000000
O     0.806000000    -0.622000000    -4.658000000
H    -0.461000000    -0.605000000    -2.939000000
C    -0.904000000     2.257000000    -4.162000000
C     0.388000000     2.292000000    -4.849000000
H     0.612000000     3.356000000    -4.950000000
H     0.171000000     1.868000000    -5.832000000
C     1.547000000     1.611000000    -4.186000000
C     2.514000000     2.446000000    -3.621000000
H     2.434000000     3.529000000    -3.669000000
C     1.676000000     0.209000000    -4.073000000
C     2.778000000    -0.308000000    -3.417000000
H     2.765000000    -1.383000000    -3.258000000
C     3.723000000     0.488000000    -2.801000000
O     4.607000000    -0.086000000    -1.964000000
C     4.124000000    -0.169000000    -0.642000000
C     4.193000000    -1.554000000    -0.096000000
C     4.569000000    -2.616000000    -0.869000000
H     4.798000000    -2.463000000    -1.920000000
C     3.895000000    -1.744000000     1.265000000
H     3.523000000    -0.893000000     1.830000000
O     4.779000000     0.858000000     0.151000000
H     3.035000000    -0.017000000    -0.664000000
C     3.646000000     1.883000000    -2.942000000
C     4.577000000     2.737000000    -2.140000000
H     4.714000000     3.668000000    -2.694000000
H     5.517000000     2.205000000    -1.981000000
C     3.875000000     2.935000000    -0.772000000
C     4.198000000     2.070000000     0.343000000
C     3.639000000     2.314000000     1.625000000
H     3.725000000     1.696000000     2.515000000
C     2.825000000     3.449000000     1.776000000
O     2.220000000     3.656000000     2.984000000
C     0.965000000     3.055000000     3.215000000
H     0.804000000     2.298000000     2.434000000
C     0.966000000     2.458000000     4.576000000
C    -0.210000000     2.414000000     5.260000000
H    -1.066000000     2.955000000     4.865000000
C     2.040000000     1.647000000     5.035000000
H     2.979000000     1.555000000     4.496000000
C     1.874000000     0.820000000     6.207000000
O     2.919000000     0.008000000     6.582000000
C     0.674000000     0.938000000     6.940000000
H     0.668000000     0.274000000     7.801000000
C    -0.372000000     1.735000000     6.477000000
O    -1.534000000     1.787000000     7.111000000
C    -2.671000000     1.561000000     6.344000000
C    -2.867000000     0.538000000     5.451000000
H    -2.058000000    -0.178000000     5.328000000
C    -3.762000000     2.457000000     6.543000000
H    -3.696000000     3.196000000     7.338000000
C    -4.857000000     2.343000000     5.732000000
H    -5.609000000     3.114000000     5.876000000
C    -5.059000000     1.338000000     4.843000000
H    -5.945000000     1.213000000     4.227000000
C    -4.012000000     0.450000000     4.655000000
O    -3.989000000    -0.660000000     3.827000000
C    -4.309000000    -0.528000000     2.475000000
C    -4.916000000    -1.589000000     1.792000000
H    -5.142000000    -2.535000000     2.278000000
C    -5.138000000    -1.493000000     0.442000000
O    -5.685000000    -2.602000000    -0.124000000
C    -5.835000000    -2.860000000    -1.443000000
C    -4.781000000    -3.244000000    -2.256000000
H    -3.845000000    -3.495000000    -1.764000000
C    -7.080000000    -2.746000000    -2.045000000
H    -7.966000000    -2.476000000    -1.476000000
C    -7.366000000    -3.033000000    -3.393000000
H    -8.385000000    -3.032000000    -3.770000000
C    -6.269000000    -3.571000000    -4.127000000
H    -6.449000000    -3.771000000    -5.180000000
C    -5.033000000    -3.638000000    -3.603000000
O    -4.052000000    -4.149000000    -4.420000000
C    -2.722000000    -3.922000000    -4.226000000
C    -1.786000000    -4.973000000    -4.180000000
H    -2.107000000    -6.011000000    -4.155000000
C    -0.460000000    -4.668000000    -4.000000000
O     0.497000000    -5.650000000    -3.795000000
C     1.912000000    -5.408000000    -3.705000000
C     2.561000000    -5.158000000    -2.519000000
H     1.954000000    -5.220000000    -1.619000000
C     2.658000000    -5.616000000    -4.825000000
H     2.066000000    -5.693000000    -5.734000000
C     4.052000000    -5.476000000    -4.842000000
H     4.612000000    -5.541000000    -5.771000000
C     4.687000000    -5.213000000    -3.640000000
H     5.755000000    -5.054000000    -3.518000000
C     3.940000000    -5.092000000    -2.468000000
O     4.670000000    -4.911000000    -1.299000000
C     4.488000000    -3.891000000    -0.436000000
C     4.058000000    -4.112000000     0.845000000
H     3.837000000    -5.133000000     1.147000000
C     3.802000000    -3.029000000     1.777000000
O     3.292000000    -3.321000000     2.988000000
C     3.810000000    -2.651000000     4.109000000
C     5.076000000    -3.036000000     4.634000000
H     5.590000000    -3.897000000     4.215000000
C     5.574000000    -2.340000000     5.748000000
H     6.491000000    -2.785000000     6.126000000
C     4.836000000    -1.328000000     6.287000000
H     5.162000000    -0.832000000     7.198000000
C     3.588000000    -0.944000000     5.835000000
C     3.069000000    -1.611000000     4.751000000
H     2.069000000    -1.449000000     4.358000000
C     0.532000000    -1.983000000     0.398000000
H     0.939000000    -2.898000000    -0.027000000
C     0.656000000    -0.829000000    -0.390000000
H     1.079000000    -0.933000000    -1.386000000
C     0.103000000     0.366000000    -0.067000000
H     0.373000000     1.266000000    -0.667000000
C    -0.487000000     0.468000000     1.233000000
H    -0.946000000     1.387000000     1.590000000
C    -0.546000000    -0.697000000     2.043000000
H    -0.963000000    -0.562000000     3.038000000
C    -0.053000000    -1.921000000     1.672000000
C    -0.151000000    -3.127000000     2.577000000
O    -0.263000000    -2.947000000     3.744000000
O    -0.326000000    -4.193000000     2.023000000
O     5.693000000     0.106000000     3.647000000
H     6.451000000    -0.167000000     3.130000000
H     5.255000000    -0.712000000     3.882000000
O    -0.150000000    -9.518000000     1.447000000
H     0.152000000   -10.259000000     0.922000000
H    -0.805000000    -9.087000000     0.899000000
O     4.642000000    -7.482000000     0.840000000
H     3.808000000    -7.199000000     0.466000000
H     4.534000000    -8.422000000     0.984000000
O    -0.167000000    -1.880000000     6.253000000
H    -0.228000000    -2.132000000     5.332000000
H     0.741000000    -2.069000000     6.493000000
O     1.312000000    -7.835000000     2.804000000
H     0.774000000    -8.588000000     2.558000000
H     1.376000000    -7.315000000     2.002000000
O    -1.125000000    -3.486000000     8.149000000
H    -0.779000000    -2.818000000     7.557000000
H    -0.726000000    -4.303000000     7.848000000
O     2.929000000    -5.564000000     7.464000000
H     3.484000000    -5.747000000     6.706000000
H     3.289000000    -4.759000000     7.836000000
O     4.360000000    -6.462000000     5.179000000
H     4.732000000    -6.461000000     4.297000000
H     5.031000000    -6.048000000     5.722000000
O    -1.627000000    -4.957000000    -0.176000000
H    -1.294000000    -4.584000000     0.641000000
H    -2.487000000    -5.308000000     0.054000000
O     2.272000000    -8.127000000     5.429000000
H     1.810000000    -8.080000000     4.592000000
H     2.747000000    -7.299000000     5.488000000
O    -4.370000000    -5.357000000     0.661000000
H    -4.919000000    -4.601000000     0.455000000
H    -3.997000000    -5.155000000     1.519000000
O    -2.890000000    -4.559000000     3.386000000
H    -2.278000000    -3.904000000     3.052000000
H    -2.332000000    -5.248000000     3.747000000
O    -1.739000000    -7.598000000     4.489000000
H    -0.990000000    -7.002000000     4.492000000
H    -1.362000000    -8.458000000     4.672000000
O     0.161000000    -5.558000000     4.510000000
H     0.017000000    -4.663000000     4.203000000
H     0.834000000    -5.906000000     3.924000000
O    -1.027000000    -7.121000000    -1.419000000
H    -1.696000000    -7.583000000    -0.914000000
H    -1.081000000    -6.215000000    -1.114000000
O     2.344000000    -7.744000000    -0.378000000
H     1.744000000    -7.193000000     0.124000000
H     1.840000000    -8.009000000    -1.147000000
O     0.233000000    -5.669000000     7.198000000
H     0.203000000    -5.578000000     6.246000000
H     1.166000000    -5.740000000     7.402000000
O    -5.252000000    -4.899000000     4.928000000
H    -5.420000000    -3.980000000     5.139000000
H    -4.313000000    -4.935000000     4.745000000
O     0.841000000    -5.847000000     0.612000000
H     0.123000000    -5.732000000    -0.010000000
H     0.713000000    -5.152000000     1.257000000
