215
-1441.17585
C    -4.071000000    -0.229000000    -0.729000000
H    -3.448000000    -0.335000000    -1.614000000
C    -4.139000000     1.000000000    -0.059000000
C    -4.808000000     1.114000000     1.182000000
H    -4.975000000     2.054000000     1.702000000
C    -3.310000000     2.167000000    -0.643000000
O    -3.462000000     2.502000000    -2.059000000
H    -2.235000000     1.952000000    -0.552000000
O    -3.394000000     3.399000000     0.188000000
C    -2.189000000     3.922000000     0.644000000
C    -1.749000000     3.721000000     1.931000000
H    -2.336000000     3.211000000     2.691000000
C    -0.491000000     4.154000000     2.356000000
O    -0.128000000     3.791000000     3.640000000
C     0.305000000     4.861000000     1.498000000
C     1.779000000     5.198000000     1.818000000
H     1.982000000     5.953000000     1.056000000
C     2.724000000     3.924000000     1.615000000
C     3.386000000     3.713000000     0.404000000
H     3.163000000     4.376000000    -0.428000000
H     1.923000000     5.723000000     2.764000000
C    -0.146000000     5.171000000     0.132000000
H     0.441000000     5.751000000    -0.575000000
C    -1.370000000     4.663000000    -0.235000000
C    -1.762000000     4.853000000    -1.692000000
H    -1.362000000     5.778000000    -2.114000000
H    -2.844000000     4.932000000    -1.817000000
C    -1.451000000     3.688000000    -2.635000000
C    -0.253000000     3.708000000    -3.367000000
H     0.406000000     4.572000000    -3.341000000
C    -2.387000000     2.703000000    -2.860000000
C    -2.115000000     1.713000000    -3.850000000
H    -2.775000000     0.889000000    -4.107000000
C    -0.929000000     1.767000000    -4.634000000
O    -0.627000000     0.624000000    -5.326000000
C     0.176000000    -0.453000000    -4.670000000
C    -0.329000000    -1.853000000    -4.824000000
C     0.547000000    -2.960000000    -4.761000000
H     1.588000000    -2.690000000    -4.604000000
C    -1.672000000    -2.084000000    -5.190000000
H    -2.378000000    -1.264000000    -5.295000000
O     1.622000000    -0.307000000    -5.055000000
H     0.059000000    -0.347000000    -3.581000000
C     0.069000000     2.652000000    -4.299000000
C     1.438000000     2.581000000    -4.926000000
H     1.835000000     3.561000000    -5.200000000
H     1.280000000     2.162000000    -5.922000000
C     2.368000000     1.827000000    -4.099000000
C     3.132000000     2.538000000    -3.153000000
H     3.119000000     3.610000000    -2.973000000
C     2.500000000     0.462000000    -4.246000000
C     3.321000000    -0.228000000    -3.440000000
H     3.512000000    -1.275000000    -3.661000000
C     4.055000000     0.374000000    -2.404000000
O     4.673000000    -0.430000000    -1.473000000
C     3.954000000    -0.409000000    -0.178000000
C     3.819000000    -1.837000000     0.331000000
C     4.021000000    -2.923000000    -0.578000000
H     4.476000000    -2.761000000    -1.553000000
C     3.386000000    -2.124000000     1.637000000
H     3.278000000    -1.321000000     2.361000000
O     4.704000000     0.321000000     0.867000000
H     2.920000000    -0.055000000    -0.299000000
C     3.997000000     1.788000000    -2.337000000
C     4.796000000     2.418000000    -1.232000000
H     5.270000000     3.320000000    -1.623000000
H     5.690000000     1.844000000    -0.977000000
C     4.139000000     2.591000000     0.136000000
C     4.220000000     1.611000000     1.100000000
C     3.502000000     1.754000000     2.267000000
H     3.521000000     0.874000000     2.905000000
C     2.850000000     2.897000000     2.603000000
O     2.076000000     2.823000000     3.760000000
C     0.651000000     2.563000000     3.789000000
H     0.434000000     2.002000000     2.869000000
C     0.196000000     1.711000000     4.952000000
C    -1.103000000     1.785000000     5.440000000
H    -1.816000000     2.328000000     4.826000000
C     1.056000000     0.804000000     5.548000000
H     2.067000000     0.745000000     5.153000000
C     0.644000000    -0.064000000     6.575000000
O     1.476000000    -1.073000000     7.113000000
C    -0.671000000    -0.094000000     6.914000000
H    -1.009000000    -0.829000000     7.640000000
C    -1.557000000     0.827000000     6.334000000
O    -2.868000000     0.702000000     6.669000000
C    -3.839000000     1.213000000     5.848000000
C    -4.295000000     0.461000000     4.826000000
H    -3.720000000    -0.399000000     4.492000000
C    -4.526000000     2.356000000     6.185000000
H    -4.097000000     2.897000000     7.024000000
C    -5.673000000     2.711000000     5.570000000
H    -6.236000000     3.589000000     5.876000000
C    -6.144000000     1.954000000     4.484000000
H    -7.114000000     2.140000000     4.030000000
C    -5.406000000     0.815000000     4.090000000
O    -5.786000000     0.028000000     3.020000000
C    -5.162000000    -0.072000000     1.833000000
C    -5.095000000    -1.294000000     1.188000000
H    -5.386000000    -2.189000000     1.731000000
C    -4.612000000    -1.367000000    -0.114000000
O    -4.456000000    -2.556000000    -0.793000000
C    -4.895000000    -2.744000000    -2.017000000
C    -4.089000000    -3.154000000    -3.003000000
H    -3.059000000    -3.427000000    -2.787000000
C    -6.205000000    -2.352000000    -2.387000000
H    -6.818000000    -1.894000000    -1.616000000
C    -6.590000000    -2.219000000    -3.730000000
H    -7.509000000    -1.777000000    -4.105000000
C    -5.684000000    -2.695000000    -4.692000000
H    -5.916000000    -2.685000000    -5.754000000
C    -4.456000000    -3.155000000    -4.315000000
O    -3.567000000    -3.514000000    -5.315000000
C    -2.228000000    -3.365000000    -5.282000000
C    -1.405000000    -4.456000000    -5.091000000
H    -1.755000000    -5.477000000    -5.220000000
C     0.003000000    -4.282000000    -4.947000000
O     0.921000000    -5.415000000    -4.916000000
C     2.139000000    -5.304000000    -4.419000000
C     2.282000000    -5.474000000    -3.075000000
H     1.493000000    -5.900000000    -2.461000000
C     3.173000000    -4.805000000    -5.159000000
H     3.154000000    -4.780000000    -6.245000000
C     4.461000000    -4.577000000    -4.517000000
H     5.301000000    -4.235000000    -5.117000000
C     4.509000000    -4.670000000    -3.179000000
H     5.477000000    -4.534000000    -2.702000000
C     3.458000000    -5.135000000    -2.427000000
O     3.570000000    -5.267000000    -1.040000000
C     3.597000000    -4.192000000    -0.205000000
C     3.143000000    -4.450000000     1.134000000
H     2.866000000    -5.465000000     1.408000000
C     2.990000000    -3.390000000     1.992000000
O     2.503000000    -3.719000000     3.259000000
C     2.888000000    -3.106000000     4.454000000
C     4.115000000    -3.367000000     4.995000000
H     4.827000000    -3.934000000     4.401000000
C     4.459000000    -2.952000000     6.298000000
H     5.395000000    -3.243000000     6.767000000
C     3.552000000    -2.222000000     7.040000000
H     3.703000000    -1.806000000     8.032000000
C     2.337000000    -1.900000000     6.481000000
C     1.989000000    -2.271000000     5.153000000
H     0.971000000    -2.094000000     4.813000000
C    -0.108000000    -2.362000000    -0.027000000
H     0.000000000    -3.443000000    -0.044000000
C     0.643000000    -1.547000000    -0.854000000
H     1.194000000    -2.060000000    -1.638000000
C     0.552000000    -0.187000000    -0.748000000
H     1.123000000     0.367000000    -1.414000000
C    -0.147000000     0.397000000     0.285000000
H    -0.177000000     1.477000000     0.411000000
C    -0.788000000    -0.406000000     1.203000000
H    -1.438000000     0.062000000     1.938000000
C    -0.742000000    -1.778000000     1.116000000
C    -1.554000000    -2.569000000     2.050000000
O    -1.935000000    -2.097000000     3.098000000
O    -1.837000000    -3.739000000     1.728000000
O     0.360000000    -6.011000000     6.785000000
H    -0.479000000    -6.440000000     6.616000000
H     0.867000000    -6.155000000     5.986000000
O     0.387000000    -8.877000000    -1.003000000
H     0.304000000    -8.198000000    -0.334000000
H    -0.511000000    -9.039000000    -1.293000000
O    -2.166000000    -2.721000000     6.116000000
H    -1.957000000    -2.279000000     5.293000000
H    -3.121000000    -2.790000000     6.115000000
O    -8.692000000    -0.589000000     2.694000000
H    -7.747000000    -0.532000000     2.831000000
H    -8.799000000    -1.282000000     2.042000000
O    -4.595000000    -4.486000000     6.974000000
H    -3.941000000    -4.925000000     6.430000000
H    -4.856000000    -5.147000000     7.615000000
O    -0.991000000    -4.018000000     8.525000000
H    -1.406000000    -3.562000000     7.794000000
H    -0.381000000    -4.629000000     8.112000000
O    -4.079000000    -5.270000000     1.753000000
H    -4.478000000    -5.201000000     0.885000000
H    -3.382000000    -4.614000000     1.749000000
O    -4.915000000    -7.090000000     3.754000000
H    -5.000000000    -7.847000000     3.175000000
H    -4.517000000    -6.413000000     3.206000000
O    -1.157000000    -4.785000000     4.078000000
H    -1.608000000    -4.385000000     3.334000000
H    -1.039000000    -4.068000000     4.700000000
O    -0.067000000    -8.540000000     2.712000000
H    -0.360000000    -8.442000000     3.618000000
H     0.277000000    -9.432000000     2.666000000
O    -5.762000000    -5.407000000    -0.543000000
H    -6.265000000    -6.097000000    -0.111000000
H    -6.342000000    -5.083000000    -1.232000000
O     1.125000000    -6.188000000     3.983000000
H     1.504000000    -5.313000000     3.895000000
H     0.243000000    -6.104000000     3.620000000
O    -2.123000000    -4.825000000    -0.641000000
H    -2.073000000    -4.225000000     0.103000000
H    -1.677000000    -5.617000000    -0.340000000
O    -3.062000000    -6.515000000    -2.451000000
H    -2.876000000    -5.747000000    -1.911000000
H    -3.837000000    -6.271000000    -2.957000000
O    -2.459000000    -6.497000000     5.734000000
H    -3.162000000    -6.845000000     5.185000000
H    -2.043000000    -5.826000000     5.193000000
O    -7.291000000    -4.433000000     6.416000000
H    -7.042000000    -3.655000000     5.918000000
H    -6.464000000    -4.771000000     6.762000000
O    -6.934000000    -1.531000000     5.938000000
H    -6.511000000    -1.543000000     6.797000000
H    -6.214000000    -1.632000000     5.315000000
O    -4.270000000    -2.823000000     3.990000000
H    -4.472000000    -3.558000000     3.411000000
H    -3.425000000    -2.497000000     3.677000000
O    -0.307000000    -6.464000000     0.842000000
H    -0.141000000    -7.057000000     1.575000000
H    -0.557000000    -5.637000000     1.255000000
