215
-1432.60991
C    -4.577000000     1.355000000    -1.516000000
H    -4.183000000     1.223000000    -2.520000000
C    -4.058000000     2.340000000    -0.625000000
C    -4.589000000     2.543000000     0.651000000
H    -4.289000000     3.404000000     1.243000000
C    -2.881000000     3.115000000    -1.077000000
O    -2.903000000     3.372000000    -2.495000000
H    -1.961000000     2.535000000    -0.911000000
O    -2.742000000     4.358000000    -0.370000000
C    -1.532000000     4.515000000     0.209000000
C    -1.328000000     4.279000000     1.542000000
H    -2.137000000     4.011000000     2.217000000
C    -0.003000000     4.179000000     2.026000000
O     0.176000000     3.692000000     3.301000000
C     1.081000000     4.436000000     1.168000000
C     2.537000000     4.566000000     1.807000000
H     2.944000000     5.365000000     1.183000000
C     3.308000000     3.249000000     1.714000000
C     4.091000000     2.964000000     0.612000000
H     4.219000000     3.727000000    -0.152000000
H     2.449000000     4.826000000     2.864000000
C     0.864000000     4.864000000    -0.101000000
H     1.665000000     5.072000000    -0.805000000
C    -0.442000000     4.819000000    -0.600000000
C    -0.656000000     5.121000000    -2.077000000
H     0.078000000     5.870000000    -2.381000000
H    -1.618000000     5.634000000    -2.142000000
C    -0.630000000     3.869000000    -2.947000000
C     0.571000000     3.409000000    -3.445000000
H     1.513000000     3.895000000    -3.204000000
C    -1.791000000     3.101000000    -3.244000000
C    -1.693000000     1.916000000    -3.917000000
H    -2.583000000     1.341000000    -4.162000000
C    -0.448000000     1.454000000    -4.335000000
O    -0.330000000     0.122000000    -4.759000000
C     0.300000000    -0.883000000    -3.992000000
C    -0.358000000    -2.236000000    -4.223000000
C     0.240000000    -3.414000000    -3.758000000
H     1.275000000    -3.388000000    -3.428000000
C    -1.719000000    -2.235000000    -4.590000000
H    -2.236000000    -1.285000000    -4.703000000
O     1.726000000    -0.971000000    -4.394000000
H     0.198000000    -0.564000000    -2.945000000
C     0.673000000     2.235000000    -4.241000000
C     2.121000000     1.828000000    -4.717000000
H     2.585000000     2.760000000    -5.047000000
H     2.153000000     1.298000000    -5.671000000
C     2.757000000     0.996000000    -3.608000000
C     3.709000000     1.552000000    -2.685000000
H     3.998000000     2.588000000    -2.838000000
C     2.606000000    -0.365000000    -3.579000000
C     3.324000000    -1.196000000    -2.706000000
H     3.112000000    -2.259000000    -2.623000000
C     4.072000000    -0.628000000    -1.819000000
O     4.705000000    -1.410000000    -0.870000000
C     3.953000000    -1.410000000     0.405000000
C     3.720000000    -2.803000000     0.931000000
C     3.767000000    -3.941000000     0.074000000
H     4.083000000    -3.869000000    -0.963000000
C     3.320000000    -2.988000000     2.260000000
H     3.210000000    -2.082000000     2.851000000
O     4.781000000    -0.673000000     1.363000000
H     2.949000000    -0.974000000     0.298000000
C     4.296000000     0.741000000    -1.758000000
C     5.321000000     1.351000000    -0.823000000
H     5.823000000     2.213000000    -1.267000000
H     6.136000000     0.627000000    -0.767000000
C     4.620000000     1.636000000     0.437000000
C     4.338000000     0.644000000     1.425000000
C     3.708000000     1.066000000     2.622000000
H     3.607000000     0.375000000     3.454000000
C     3.106000000     2.295000000     2.681000000
O     2.210000000     2.476000000     3.771000000
C     0.781000000     2.466000000     3.469000000
H     0.654000000     2.057000000     2.456000000
C    -0.023000000     1.633000000     4.525000000
C    -1.379000000     1.717000000     4.644000000
H    -1.824000000     2.503000000     4.039000000
C     0.695000000     0.567000000     5.094000000
H     1.781000000     0.527000000     5.091000000
C     0.000000000    -0.201000000     5.991000000
O     0.772000000    -0.973000000     6.828000000
C    -1.352000000    -0.079000000     6.164000000
H    -1.814000000    -0.595000000     7.002000000
C    -2.048000000     0.918000000     5.460000000
O    -3.411000000     1.003000000     5.536000000
C    -4.258000000     1.960000000     5.035000000
C    -5.006000000     1.636000000     3.902000000
H    -4.977000000     0.628000000     3.496000000
C    -4.285000000     3.252000000     5.517000000
H    -3.786000000     3.639000000     6.401000000
C    -5.140000000     4.228000000     4.908000000
H    -5.132000000     5.275000000     5.199000000
C    -5.930000000     3.816000000     3.836000000
H    -6.552000000     4.435000000     3.195000000
C    -5.786000000     2.530000000     3.221000000
O    -6.444000000     2.274000000     2.049000000
C    -5.766000000     1.877000000     0.917000000
C    -6.352000000     1.002000000     0.016000000
H    -7.239000000     0.390000000     0.161000000
C    -5.738000000     0.726000000    -1.205000000
O    -6.353000000    -0.209000000    -2.038000000
C    -5.891000000    -0.648000000    -3.260000000
C    -5.075000000    -1.761000000    -3.364000000
H    -4.836000000    -2.225000000    -2.410000000
C    -6.321000000    -0.085000000    -4.412000000
H    -6.946000000     0.803000000    -4.426000000
C    -5.983000000    -0.617000000    -5.652000000
H    -6.370000000    -0.103000000    -6.528000000
C    -5.215000000    -1.793000000    -5.742000000
H    -4.875000000    -2.194000000    -6.693000000
C    -4.677000000    -2.341000000    -4.586000000
O    -3.869000000    -3.474000000    -4.527000000
C    -2.468000000    -3.424000000    -4.497000000
C    -1.791000000    -4.571000000    -4.101000000
H    -2.271000000    -5.546000000    -4.103000000
C    -0.499000000    -4.634000000    -3.759000000
O    -0.037000000    -5.877000000    -3.368000000
C     1.289000000    -6.070000000    -3.096000000
C     1.743000000    -6.059000000    -1.749000000
H     0.896000000    -5.910000000    -1.084000000
C     2.174000000    -6.289000000    -4.107000000
H     1.915000000    -6.119000000    -5.149000000
C     3.508000000    -6.613000000    -3.832000000
H     4.128000000    -6.800000000    -4.705000000
C     3.979000000    -6.722000000    -2.519000000
H     4.971000000    -7.089000000    -2.267000000
C     3.067000000    -6.364000000    -1.475000000
O     3.445000000    -6.370000000    -0.173000000
C     3.399000000    -5.210000000     0.569000000
C     3.107000000    -5.353000000     1.927000000
H     2.933000000    -6.335000000     2.360000000
C     2.937000000    -4.232000000     2.733000000
O     2.351000000    -4.402000000     3.985000000
C     2.626000000    -3.514000000     5.045000000
C     3.883000000    -3.536000000     5.707000000
H     4.679000000    -4.231000000     5.452000000
C     4.144000000    -2.558000000     6.673000000
H     5.065000000    -2.551000000     7.249000000
C     3.078000000    -1.703000000     7.099000000
H     3.286000000    -1.138000000     8.004000000
C     1.809000000    -1.769000000     6.456000000
C     1.613000000    -2.580000000     5.341000000
H     0.704000000    -2.706000000     4.759000000
C    -0.486000000    -1.888000000     0.602000000
H    -0.178000000    -2.891000000     0.318000000
C    -0.100000000    -0.681000000    -0.019000000
H     0.594000000    -0.643000000    -0.855000000
C    -0.538000000     0.559000000     0.447000000
H    -0.244000000     1.391000000    -0.129000000
C    -1.477000000     0.651000000     1.462000000
H    -1.889000000     1.573000000     1.864000000
C    -1.820000000    -0.578000000     2.097000000
H    -2.587000000    -0.617000000     2.867000000
C    -1.326000000    -1.817000000     1.720000000
C    -1.780000000    -3.146000000     2.391000000
O    -2.371000000    -3.119000000     3.477000000
O    -1.761000000    -4.169000000     1.849000000
O    -2.058000000    -5.872000000     4.015000000
H    -2.987000000    -5.980000000     3.812000000
H    -1.762000000    -5.181000000     3.423000000
O    -1.668000000    -3.424000000     7.291000000
H    -1.994000000    -2.900000000     8.023000000
H    -2.378000000    -3.407000000     6.649000000
O    -6.162000000    -6.423000000     0.930000000
H    -6.106000000    -6.826000000     0.063000000
H    -5.251000000    -6.256000000     1.175000000
O     0.749000000    -6.970000000     3.975000000
H     0.621000000    -6.666000000     4.874000000
H    -0.018000000    -6.647000000     3.502000000
O    -4.709000000    -6.768000000     5.035000000
H    -5.350000000    -6.846000000     5.741000000
H    -5.135000000    -7.170000000     4.278000000
O    -3.982000000    -3.946000000     5.384000000
H    -4.019000000    -4.892000000     5.245000000
H    -3.407000000    -3.624000000     4.690000000
O     0.628000000    -8.909000000     0.102000000
H     0.204000000    -9.597000000     0.615000000
H     0.175000000    -8.105000000     0.359000000
O    -3.471000000    -7.583000000     2.018000000
H    -3.709000000    -8.002000000     1.190000000
H    -3.142000000    -8.299000000     2.562000000
O    -0.453000000    -5.851000000     6.391000000
H    -0.664000000    -5.107000000     6.955000000
H    -1.140000000    -5.849000000     5.725000000
O    -1.863000000    -8.347000000     5.180000000
H    -2.471000000    -8.110000000     5.881000000
H    -1.623000000    -7.512000000     4.779000000
O    -6.985000000    -3.944000000     5.148000000
H    -6.028000000    -3.927000000     5.155000000
H    -7.240000000    -3.451000000     5.928000000
O    -5.103000000    -2.197000000     0.467000000
H    -4.711000000    -1.371000000     0.183000000
H    -5.818000000    -2.348000000    -0.151000000
O    -0.931000000    -6.674000000     1.128000000
H    -1.685000000    -6.987000000     1.629000000
H    -0.875000000    -5.742000000     1.339000000
O    -5.391000000    -1.205000000     5.833000000
H    -5.203000000    -1.384000000     4.912000000
H    -4.610000000    -0.752000000     6.153000000
O    -8.014000000    -4.425000000     1.519000000
H    -7.265000000    -4.826000000     1.078000000
H    -8.778000000    -4.826000000     1.105000000
O    -2.723000000    -6.777000000    -1.875000000
H    -3.083000000    -6.221000000    -1.184000000
H    -1.849000000    -6.422000000    -2.037000000
O    -4.539000000    -4.652000000     8.330000000
H    -5.418000000    -4.317000000     8.508000000
H    -4.331000000    -4.326000000     7.454000000
O    -4.645000000    -1.798000000     3.216000000
H    -4.683000000    -1.849000000     2.261000000
H    -3.841000000    -2.263000000     3.449000000
O    -3.464000000    -4.869000000    -0.182000000
H    -4.111000000    -4.164000000    -0.153000000
H    -2.792000000    -4.603000000     0.446000000
