215
-1452.90047
C    -4.404000000     1.384000000    -2.930000000
H    -4.112000000     1.808000000    -3.888000000
C    -3.763000000     1.905000000    -1.834000000
C    -4.123000000     1.519000000    -0.501000000
H    -3.524000000     1.843000000     0.346000000
C    -2.515000000     2.799000000    -1.915000000
O    -2.093000000     3.159000000    -3.329000000
H    -1.738000000     2.123000000    -1.529000000
O    -2.548000000     3.969000000    -1.067000000
C    -1.496000000     4.266000000    -0.210000000
C    -1.618000000     3.907000000     1.179000000
H    -2.517000000     3.397000000     1.515000000
C    -0.477000000     4.009000000     1.925000000
O    -0.504000000     3.629000000     3.217000000
C     0.725000000     4.455000000     1.356000000
C     1.990000000     4.608000000     2.195000000
H     2.602000000     5.468000000     1.916000000
C     2.846000000     3.360000000     2.318000000
C     3.881000000     3.060000000     1.413000000
H     4.038000000     3.728000000     0.570000000
H     1.773000000     4.787000000     3.250000000
C     0.809000000     4.838000000     0.047000000
H     1.723000000     5.177000000    -0.434000000
C    -0.281000000     4.662000000    -0.774000000
C    -0.147000000     5.020000000    -2.255000000
H     0.650000000     5.764000000    -2.324000000
H    -1.088000000     5.248000000    -2.758000000
C     0.261000000     3.832000000    -3.133000000
C     1.619000000     3.648000000    -3.408000000
H     2.288000000     4.239000000    -2.789000000
C    -0.745000000     3.066000000    -3.748000000
C    -0.412000000     1.915000000    -4.500000000
H    -1.186000000     1.212000000    -4.797000000
C     0.979000000     1.674000000    -4.627000000
O     1.253000000     0.436000000    -5.164000000
C     1.456000000    -0.578000000    -4.116000000
C     0.626000000    -1.805000000    -4.440000000
C     0.840000000    -2.966000000    -3.726000000
H     1.666000000    -2.930000000    -3.019000000
C    -0.609000000    -1.742000000    -5.166000000
H    -0.855000000    -0.904000000    -5.814000000
O     2.786000000    -0.842000000    -4.060000000
H     1.005000000    -0.143000000    -3.212000000
C     1.967000000     2.519000000    -4.104000000
C     3.410000000     2.106000000    -4.117000000
H     4.117000000     2.929000000    -4.000000000
H     3.619000000     1.591000000    -5.057000000
C     3.830000000     1.138000000    -3.001000000
C     4.501000000     1.655000000    -1.956000000
H     4.817000000     2.695000000    -1.930000000
C     3.448000000    -0.226000000    -3.023000000
C     3.879000000    -1.069000000    -1.978000000
H     3.502000000    -2.086000000    -2.051000000
C     4.547000000    -0.531000000    -0.931000000
O     4.817000000    -1.393000000     0.112000000
C     3.990000000    -1.308000000     1.252000000
C     3.582000000    -2.602000000     1.899000000
C     3.679000000    -3.791000000     1.135000000
H     4.285000000    -3.810000000     0.232000000
C     2.871000000    -2.593000000     3.099000000
H     2.839000000    -1.646000000     3.633000000
O     4.585000000    -0.415000000     2.338000000
H     3.101000000    -0.796000000     0.857000000
C     4.868000000     0.829000000    -0.910000000
C     5.489000000     1.513000000     0.291000000
H     5.903000000     2.463000000    -0.054000000
H     6.280000000     0.934000000     0.771000000
C     4.410000000     1.806000000     1.348000000
C     4.043000000     0.875000000     2.318000000
C     3.033000000     1.151000000     3.243000000
H     2.789000000     0.461000000     4.047000000
C     2.444000000     2.437000000     3.275000000
O     1.398000000     2.610000000     4.126000000
C     0.082000000     2.355000000     3.680000000
H     0.209000000     1.706000000     2.801000000
C    -0.767000000     1.544000000     4.676000000
C    -2.166000000     1.685000000     4.523000000
H    -2.558000000     2.345000000     3.753000000
C    -0.206000000     0.796000000     5.676000000
H     0.847000000     0.551000000     5.791000000
C    -1.006000000     0.208000000     6.655000000
O    -0.491000000    -0.710000000     7.595000000
C    -2.415000000     0.280000000     6.455000000
H    -3.070000000    -0.236000000     7.151000000
C    -2.987000000     1.054000000     5.405000000
O    -4.377000000     1.264000000     5.366000000
C    -4.996000000     1.680000000     4.237000000
C    -5.223000000     0.800000000     3.231000000
H    -4.879000000    -0.223000000     3.364000000
C    -5.320000000     3.011000000     4.145000000
H    -5.199000000     3.753000000     4.929000000
C    -5.909000000     3.406000000     2.946000000
H    -6.299000000     4.418000000     2.869000000
C    -6.127000000     2.540000000     1.912000000
H    -6.731000000     2.762000000     1.036000000
C    -5.652000000     1.226000000     1.972000000
O    -5.709000000     0.360000000     0.864000000
C    -5.208000000     0.658000000    -0.371000000
C    -5.783000000     0.082000000    -1.466000000
H    -6.657000000    -0.555000000    -1.356000000
C    -5.366000000     0.392000000    -2.696000000
O    -6.013000000    -0.171000000    -3.742000000
C    -5.492000000    -0.660000000    -4.918000000
C    -4.235000000    -1.285000000    -4.869000000
H    -3.707000000    -1.432000000    -3.931000000
C    -6.178000000    -0.667000000    -6.135000000
H    -7.219000000    -0.360000000    -6.186000000
C    -5.506000000    -1.086000000    -7.344000000
H    -6.072000000    -1.057000000    -8.271000000
C    -4.262000000    -1.648000000    -7.278000000
H    -3.759000000    -1.905000000    -8.207000000
C    -3.704000000    -1.858000000    -6.034000000
O    -2.581000000    -2.712000000    -6.067000000
C    -1.525000000    -2.780000000    -5.180000000
C    -1.333000000    -3.852000000    -4.280000000
H    -1.973000000    -4.730000000    -4.315000000
C    -0.058000000    -4.008000000    -3.675000000
O     0.004000000    -5.008000000    -2.702000000
C     1.138000000    -5.655000000    -2.269000000
C     1.518000000    -5.514000000    -0.937000000
H     0.934000000    -4.934000000    -0.227000000
C     1.939000000    -6.402000000    -3.146000000
H     1.632000000    -6.518000000    -4.182000000
C     3.118000000    -6.988000000    -2.720000000
H     3.776000000    -7.580000000    -3.352000000
C     3.395000000    -6.877000000    -1.308000000
H     4.211000000    -7.461000000    -0.893000000
C     2.579000000    -6.234000000    -0.459000000
O     3.040000000    -6.092000000     0.842000000
C     3.025000000    -4.904000000     1.557000000
C     2.288000000    -4.914000000     2.751000000
H     1.740000000    -5.808000000     3.039000000
C     2.291000000    -3.795000000     3.563000000
O     1.364000000    -3.788000000     4.585000000
C     1.549000000    -3.073000000     5.729000000
C     2.693000000    -3.229000000     6.531000000
H     3.535000000    -3.863000000     6.263000000
C     2.813000000    -2.446000000     7.636000000
H     3.755000000    -2.542000000     8.171000000
C     1.734000000    -1.634000000     8.089000000
H     1.802000000    -0.988000000     8.960000000
C     0.510000000    -1.597000000     7.367000000
C     0.455000000    -2.364000000     6.217000000
H    -0.363000000    -2.222000000     5.517000000
C    -0.135000000    -1.841000000     0.574000000
H     0.461000000    -2.657000000     0.174000000
C     0.277000000    -0.577000000     0.148000000
H     1.016000000    -0.369000000    -0.621000000
C    -0.368000000     0.511000000     0.668000000
H    -0.122000000     1.558000000     0.345000000
C    -1.537000000     0.354000000     1.450000000
H    -2.103000000     1.240000000     1.724000000
C    -1.847000000    -0.881000000     1.921000000
H    -2.663000000    -0.991000000     2.631000000
C    -1.198000000    -2.011000000     1.483000000
C    -1.660000000    -3.328000000     1.831000000
O    -2.206000000    -3.572000000     2.921000000
O    -1.563000000    -4.191000000     0.940000000
O    -3.254000000    -3.244000000     5.479000000
H    -3.615000000    -4.130000000     5.518000000
H    -2.665000000    -3.258000000     4.725000000
O    -7.199000000    -6.874000000     2.516000000
H    -6.558000000    -6.951000000     1.809000000
H    -8.041000000    -6.795000000     2.068000000
O    -4.289000000    -5.588000000     1.416000000
H    -4.311000000    -5.037000000     0.633000000
H    -3.595000000    -5.209000000     1.956000000
O    -2.284000000    -9.856000000    -0.289000000
H    -2.183000000    -9.461000000     0.577000000
H    -1.621000000    -9.425000000    -0.828000000
O    -4.712000000    -4.544000000    -3.248000000
H    -3.920000000    -4.172000000    -2.860000000
H    -5.075000000    -5.103000000    -2.562000000
O    -4.549000000    -7.561000000    -1.903000000
H    -5.142000000    -7.618000000    -1.153000000
H    -3.734000000    -7.216000000    -1.537000000
O    -7.097000000    -4.180000000    -0.404000000
H    -7.681000000    -3.425000000    -0.333000000
H    -6.254000000    -3.861000000    -0.079000000
O    -5.081000000    -7.894000000     0.585000000
H    -4.527000000    -8.537000000     1.029000000
H    -4.873000000    -7.063000000     1.013000000
O    -4.689000000    -2.856000000     3.164000000
H    -4.696000000    -2.681000000     4.105000000
H    -3.845000000    -3.280000000     3.006000000
O    -2.187000000    -8.240000000     1.789000000
H    -1.816000000    -8.036000000     2.647000000
H    -2.385000000    -7.385000000     1.405000000
O    -0.530000000    -8.122000000     4.070000000
H     0.079000000    -8.007000000     4.799000000
H    -0.982000000    -7.281000000     4.001000000
O    -4.302000000    -5.841000000     6.045000000
H    -4.976000000    -6.165000000     5.448000000
H    -4.784000000    -5.567000000     6.825000000
O    -2.951000000    -2.939000000     8.299000000
H    -2.965000000    -2.820000000     7.349000000
H    -3.117000000    -2.064000000     8.651000000
O    -1.863000000    -0.933000000    -2.001000000
H    -1.545000000    -1.801000000    -2.248000000
H    -1.721000000    -0.886000000    -1.055000000
O    -2.001000000    -6.025000000     3.905000000
H    -1.809000000    -5.143000000     3.586000000
H    -2.648000000    -5.894000000     4.598000000
O    -7.306000000    -2.112000000     2.969000000
H    -7.909000000    -2.775000000     2.631000000
H    -6.471000000    -2.571000000     3.060000000
O    -5.071000000    -2.707000000     0.320000000
H    -5.067000000    -2.616000000     1.273000000
H    -5.151000000    -1.811000000    -0.006000000
O    -2.083000000    -6.184000000    -0.517000000
H    -2.107000000    -5.759000000    -1.374000000
H    -1.904000000    -5.473000000     0.098000000
O    -2.952000000    -3.454000000    -1.434000000
H    -3.702000000    -3.087000000    -0.967000000
H    -2.308000000    -3.635000000    -0.748000000
