215
-1462.01468
C    -4.300000000     2.252000000    -2.928000000
H    -3.768000000     2.436000000    -3.858000000
C    -3.763000000     2.845000000    -1.791000000
C    -4.477000000     2.805000000    -0.610000000
H    -4.067000000     3.151000000     0.336000000
C    -2.379000000     3.430000000    -1.767000000
O    -1.828000000     3.659000000    -3.058000000
H    -1.838000000     2.581000000    -1.325000000
O    -2.305000000     4.632000000    -0.838000000
C    -1.172000000     4.849000000    -0.112000000
C    -1.342000000     4.461000000     1.229000000
H    -2.332000000     4.277000000     1.639000000
C    -0.168000000     4.220000000     2.006000000
O    -0.347000000     3.668000000     3.322000000
C     1.138000000     4.599000000     1.548000000
C     2.350000000     4.426000000     2.459000000
H     3.044000000     5.227000000     2.194000000
C     2.897000000     3.036000000     2.437000000
C     3.904000000     2.660000000     1.523000000
H     4.264000000     3.423000000     0.837000000
H     2.006000000     4.710000000     3.456000000
C     1.261000000     4.879000000     0.186000000
H     2.268000000     5.063000000    -0.179000000
C     0.106000000     4.921000000    -0.591000000
C     0.348000000     5.067000000    -2.079000000
H     1.239000000     5.688000000    -2.198000000
H    -0.498000000     5.568000000    -2.555000000
C     0.501000000     3.786000000    -2.861000000
C     1.783000000     3.257000000    -3.272000000
H     2.656000000     3.853000000    -3.019000000
C    -0.624000000     3.093000000    -3.303000000
C    -0.526000000     1.817000000    -3.958000000
H    -1.421000000     1.373000000    -4.387000000
C     0.770000000     1.333000000    -4.230000000
O     0.871000000     0.097000000    -4.815000000
C     1.319000000    -0.967000000    -3.878000000
C     0.356000000    -2.108000000    -3.967000000
C     0.660000000    -3.352000000    -3.453000000
H     1.601000000    -3.503000000    -2.931000000
C    -0.910000000    -1.885000000    -4.463000000
H    -1.281000000    -0.935000000    -4.839000000
O     2.685000000    -1.422000000    -3.941000000
H     1.226000000    -0.487000000    -2.892000000
C     1.893000000     1.977000000    -3.662000000
C     3.312000000     1.466000000    -3.954000000
H     4.039000000     2.255000000    -4.157000000
H     3.183000000     0.990000000    -4.928000000
C     3.852000000     0.431000000    -2.930000000
C     4.531000000     0.984000000    -1.845000000
H     4.780000000     2.042000000    -1.850000000
C     3.610000000    -0.977000000    -3.014000000
C     3.962000000    -1.815000000    -1.932000000
H     3.697000000    -2.868000000    -1.975000000
C     4.620000000    -1.223000000    -0.833000000
O     4.644000000    -1.915000000     0.334000000
C     3.677000000    -1.740000000     1.384000000
C     3.223000000    -3.083000000     1.936000000
C     3.254000000    -4.213000000     1.060000000
H     3.586000000    -4.002000000     0.047000000
C     2.936000000    -3.294000000     3.275000000
H     3.001000000    -2.521000000     4.037000000
O     4.188000000    -0.864000000     2.438000000
H     2.811000000    -1.221000000     0.947000000
C     4.818000000     0.183000000    -0.782000000
C     5.415000000     0.944000000     0.423000000
H     6.046000000     1.782000000     0.121000000
H     6.132000000     0.284000000     0.915000000
C     4.347000000     1.311000000     1.494000000
C     3.837000000     0.431000000     2.419000000
C     2.782000000     0.765000000     3.327000000
H     2.307000000     0.048000000     3.993000000
C     2.381000000     2.064000000     3.298000000
O     1.367000000     2.419000000     4.183000000
C     0.080000000     2.350000000     3.553000000
H     0.280000000     1.940000000     2.552000000
C    -0.958000000     1.473000000     4.325000000
C    -2.316000000     1.727000000     4.166000000
H    -2.682000000     2.554000000     3.564000000
C    -0.576000000     0.343000000     4.985000000
H     0.456000000     0.026000000     4.860000000
C    -1.514000000    -0.547000000     5.574000000
O    -1.147000000    -1.672000000     6.236000000
C    -2.852000000    -0.233000000     5.456000000
H    -3.579000000    -0.850000000     5.978000000
C    -3.286000000     0.952000000     4.797000000
O    -4.601000000     1.313000000     4.862000000
C    -5.178000000     2.152000000     3.875000000
C    -5.548000000     1.749000000     2.551000000
H    -5.303000000     0.760000000     2.172000000
C    -5.513000000     3.469000000     4.282000000
H    -5.315000000     3.829000000     5.288000000
C    -6.160000000     4.349000000     3.431000000
H    -6.352000000     5.343000000     3.824000000
C    -6.476000000     3.935000000     2.181000000
H    -7.080000000     4.603000000     1.572000000
C    -6.188000000     2.618000000     1.732000000
O    -6.647000000     2.224000000     0.499000000
C    -5.793000000     2.251000000    -0.610000000
C    -6.248000000     1.610000000    -1.767000000
H    -7.198000000     1.083000000    -1.820000000
C    -5.497000000     1.523000000    -2.921000000
O    -5.954000000     0.898000000    -4.067000000
C    -5.212000000     0.175000000    -4.938000000
C    -4.370000000    -0.847000000    -4.540000000
H    -4.219000000    -1.021000000    -3.477000000
C    -5.373000000     0.430000000    -6.269000000
H    -6.013000000     1.279000000    -6.496000000
C    -4.803000000    -0.451000000    -7.230000000
H    -4.878000000    -0.299000000    -8.303000000
C    -3.983000000    -1.514000000    -6.847000000
H    -3.507000000    -2.225000000    -7.518000000
C    -3.702000000    -1.613000000    -5.459000000
O    -3.102000000    -2.753000000    -5.064000000
C    -1.789000000    -2.979000000    -4.566000000
C    -1.445000000    -4.235000000    -4.070000000
H    -2.198000000    -5.019000000    -4.090000000
C    -0.178000000    -4.432000000    -3.530000000
O     0.162000000    -5.730000000    -3.010000000
C     1.460000000    -6.114000000    -2.546000000
C     1.665000000    -6.224000000    -1.158000000
H     0.790000000    -6.026000000    -0.545000000
C     2.531000000    -6.334000000    -3.381000000
H     2.353000000    -6.413000000    -4.451000000
C     3.771000000    -6.760000000    -2.825000000
H     4.613000000    -7.028000000    -3.457000000
C     3.956000000    -6.827000000    -1.423000000
H     4.904000000    -7.175000000    -1.021000000
C     2.867000000    -6.570000000    -0.613000000
O     3.001000000    -6.603000000     0.724000000
C     3.001000000    -5.487000000     1.491000000
C     2.632000000    -5.718000000     2.826000000
H     2.377000000    -6.718000000     3.169000000
C     2.587000000    -4.615000000     3.727000000
O     2.282000000    -4.851000000     5.083000000
C     1.891000000    -3.782000000     5.879000000
C     2.817000000    -3.033000000     6.611000000
H     3.842000000    -3.342000000     6.796000000
C     2.456000000    -1.797000000     7.108000000
H     3.238000000    -1.240000000     7.617000000
C     1.084000000    -1.395000000     7.077000000
H     0.790000000    -0.421000000     7.461000000
C     0.162000000    -2.078000000     6.368000000
C     0.611000000    -3.286000000     5.714000000
H    -0.119000000    -3.855000000     5.144000000
C    -0.022000000    -1.578000000     0.506000000
H     0.538000000    -2.468000000     0.232000000
C     0.242000000    -0.354000000    -0.077000000
H     1.084000000    -0.209000000    -0.748000000
C    -0.519000000     0.733000000     0.265000000
H    -0.279000000     1.683000000    -0.104000000
C    -1.618000000     0.589000000     1.129000000
H    -2.201000000     1.482000000     1.339000000
C    -1.821000000    -0.652000000     1.718000000
H    -2.615000000    -0.809000000     2.444000000
C    -1.003000000    -1.776000000     1.451000000
C    -1.187000000    -3.179000000     1.979000000
O    -2.255000000    -3.462000000     2.485000000
O    -0.459000000    -4.140000000     1.745000000
O    -2.269000000    -4.739000000     4.969000000
H    -2.290000000    -4.096000000     4.260000000
H    -1.679000000    -5.423000000     4.653000000
O    -4.366000000    -6.169000000     3.491000000
H    -3.843000000    -6.100000000     4.290000000
H    -3.830000000    -5.750000000     2.817000000
O    -5.525000000    -1.924000000     5.071000000
H    -6.340000000    -1.422000000     5.066000000
H    -5.326000000    -2.066000000     4.146000000
O    -5.761000000    -8.784000000     3.315000000
H    -5.207000000    -8.927000000     4.082000000
H    -5.645000000    -7.857000000     3.105000000
O    -2.109000000    -7.417000000    -2.651000000
H    -1.319000000    -7.005000000    -2.299000000
H    -1.906000000    -7.575000000    -3.573000000
O    -4.357000000    -3.797000000     6.725000000
H    -3.690000000    -4.331000000     6.294000000
H    -4.615000000    -3.156000000     6.063000000
O    -6.681000000    -4.896000000     3.684000000
H    -5.928000000    -5.467000000     3.531000000
H    -6.458000000    -4.081000000     3.234000000
O    -3.618000000    -7.890000000    -0.546000000
H    -3.253000000    -7.793000000    -1.425000000
H    -3.798000000    -6.994000000    -0.262000000
O    -1.417000000    -4.782000000     7.507000000
H    -1.979000000    -4.919000000     6.745000000
H    -1.121000000    -5.659000000     7.748000000
O    -4.763000000    -2.436000000     2.362000000
H    -4.873000000    -1.917000000     1.566000000
H    -3.854000000    -2.734000000     2.329000000
O    -1.694000000    -8.589000000     1.015000000
H    -2.234000000    -8.354000000     0.260000000
H    -2.265000000    -8.450000000     1.770000000
O     1.171000000    -6.829000000     6.772000000
H     1.300000000    -6.547000000     7.678000000
H     1.433000000    -6.072000000     6.247000000
O    -2.809000000    -0.685000000    -1.508000000
H    -1.969000000    -1.055000000    -1.237000000
H    -3.064000000    -0.113000000    -0.784000000
O    -1.135000000    -7.450000000     5.758000000
H    -0.219000000    -7.386000000     6.028000000
H    -1.095000000    -7.655000000     4.823000000
O    -0.950000000    -6.263000000     3.000000000
H    -0.741000000    -5.393000000     2.660000000
H    -0.675000000    -6.864000000     2.308000000
O    -2.152000000    -2.491000000     8.829000000
H    -3.077000000    -2.637000000     8.630000000
H    -1.697000000    -3.208000000     8.387000000
O    -5.456000000    -1.383000000     0.151000000
H    -5.037000000    -1.083000000    -0.656000000
H    -6.394000000    -1.342000000    -0.036000000
O     0.794000000    -8.761000000     1.576000000
H    -0.148000000    -8.834000000     1.420000000
H     1.076000000    -8.048000000     1.004000000
O    -3.459000000    -5.311000000     1.042000000
H    -4.028000000    -4.757000000     0.508000000
H    -2.954000000    -4.695000000     1.573000000
