215
-1466.29131
C    -4.567000000     1.905000000    -2.326000000
H    -4.305000000     1.820000000    -3.378000000
C    -3.908000000     2.688000000    -1.384000000
C    -4.351000000     2.703000000    -0.056000000
H    -3.817000000     3.211000000     0.743000000
C    -2.458000000     3.199000000    -1.664000000
O    -2.177000000     3.295000000    -3.095000000
H    -1.829000000     2.391000000    -1.262000000
O    -2.144000000     4.414000000    -0.936000000
C    -0.878000000     4.537000000    -0.424000000
C    -0.768000000     4.431000000     0.932000000
H    -1.707000000     4.415000000     1.479000000
C     0.453000000     4.520000000     1.563000000
O     0.469000000     4.254000000     2.911000000
C     1.654000000     4.591000000     0.793000000
C     2.933000000     4.493000000     1.546000000
H     3.755000000     4.963000000     1.001000000
C     3.335000000     3.051000000     1.661000000
C     4.130000000     2.492000000     0.682000000
H     4.447000000     3.097000000    -0.164000000
H     2.829000000     5.060000000     2.473000000
C     1.589000000     4.747000000    -0.606000000
H     2.409000000     5.106000000    -1.221000000
C     0.307000000     4.725000000    -1.205000000
C     0.125000000     5.009000000    -2.698000000
H     0.835000000     5.779000000    -3.007000000
H    -0.873000000     5.436000000    -2.817000000
C     0.155000000     3.682000000    -3.462000000
C     1.392000000     3.106000000    -3.665000000
H     2.285000000     3.709000000    -3.526000000
C    -0.990000000     2.889000000    -3.616000000
C    -0.954000000     1.548000000    -3.979000000
H    -1.891000000     0.998000000    -3.969000000
C     0.298000000     1.060000000    -4.388000000
O     0.398000000    -0.258000000    -4.770000000
C     0.848000000    -1.250000000    -3.814000000
C    -0.099000000    -2.534000000    -3.777000000
C     0.406000000    -3.833000000    -3.606000000
H     1.472000000    -3.998000000    -3.467000000
C    -1.483000000    -2.341000000    -3.836000000
H    -1.889000000    -1.343000000    -3.976000000
O     2.154000000    -1.716000000    -4.139000000
H     0.807000000    -0.751000000    -2.834000000
C     1.451000000     1.812000000    -4.171000000
C     2.817000000     1.209000000    -4.549000000
H     3.596000000     1.950000000    -4.740000000
H     2.755000000     0.650000000    -5.486000000
C     3.387000000     0.209000000    -3.462000000
C     4.310000000     0.687000000    -2.586000000
H     4.716000000     1.682000000    -2.748000000
C     3.066000000    -1.120000000    -3.350000000
C     3.615000000    -1.943000000    -2.404000000
H     3.535000000    -3.024000000    -2.491000000
C     4.322000000    -1.377000000    -1.331000000
O     4.610000000    -2.160000000    -0.201000000
C     3.799000000    -1.928000000     0.953000000
C     3.445000000    -3.220000000     1.621000000
C     3.222000000    -4.340000000     0.855000000
H     3.538000000    -4.396000000    -0.184000000
C     3.137000000    -3.243000000     2.973000000
H     3.442000000    -2.404000000     3.593000000
O     4.443000000    -1.050000000     1.907000000
H     2.834000000    -1.482000000     0.670000000
C     4.731000000    -0.066000000    -1.450000000
C     5.468000000     0.628000000    -0.321000000
H     5.980000000     1.490000000    -0.754000000
H     6.186000000    -0.087000000     0.085000000
C     4.636000000     1.193000000     0.817000000
C     4.134000000     0.332000000     1.846000000
C     3.356000000     0.936000000     2.815000000
H     3.081000000     0.358000000     3.694000000
C     2.981000000     2.288000000     2.790000000
O     2.131000000     2.683000000     3.786000000
C     0.718000000     2.832000000     3.315000000
H     0.697000000     2.217000000     2.403000000
C    -0.328000000     2.195000000     4.233000000
C    -1.515000000     2.795000000     4.511000000
H    -1.692000000     3.786000000     4.101000000
C    -0.082000000     0.969000000     4.836000000
H     0.900000000     0.525000000     4.693000000
C    -0.983000000     0.336000000     5.719000000
O    -0.594000000    -0.684000000     6.488000000
C    -2.216000000     0.954000000     5.887000000
H    -2.997000000     0.565000000     6.535000000
C    -2.424000000     2.192000000     5.364000000
O    -3.633000000     2.768000000     5.666000000
C    -4.521000000     3.200000000     4.683000000
C    -4.836000000     2.303000000     3.655000000
H    -4.378000000     1.318000000     3.611000000
C    -5.020000000     4.486000000     4.767000000
H    -4.763000000     5.192000000     5.553000000
C    -5.863000000     4.861000000     3.705000000
H    -6.293000000     5.859000000     3.696000000
C    -6.168000000     3.993000000     2.687000000
H    -6.759000000     4.386000000     1.864000000
C    -5.673000000     2.700000000     2.601000000
O    -5.961000000     1.822000000     1.650000000
C    -5.534000000     1.973000000     0.295000000
C    -6.184000000     1.275000000    -0.682000000
H    -7.091000000     0.773000000    -0.355000000
C    -5.742000000     1.183000000    -2.012000000
O    -6.547000000     0.539000000    -2.995000000
C    -5.869000000    -0.278000000    -3.844000000
C    -5.091000000    -1.334000000    -3.350000000
H    -4.895000000    -1.429000000    -2.285000000
C    -6.076000000    -0.096000000    -5.192000000
H    -6.779000000     0.669000000    -5.513000000
C    -5.400000000    -0.897000000    -6.093000000
H    -5.459000000    -0.678000000    -7.156000000
C    -4.609000000    -1.969000000    -5.656000000
H    -4.288000000    -2.690000000    -6.404000000
C    -4.413000000    -2.177000000    -4.250000000
O    -3.768000000    -3.290000000    -3.791000000
C    -2.363000000    -3.425000000    -3.846000000
C    -1.814000000    -4.719000000    -3.728000000
H    -2.474000000    -5.582000000    -3.772000000
C    -0.469000000    -4.931000000    -3.589000000
O     0.026000000    -6.209000000    -3.562000000
C     1.130000000    -6.537000000    -2.781000000
C     1.100000000    -6.367000000    -1.416000000
H     0.183000000    -6.023000000    -0.945000000
C     2.246000000    -6.909000000    -3.498000000
H     2.319000000    -6.911000000    -4.583000000
C     3.424000000    -7.119000000    -2.758000000
H     4.399000000    -7.278000000    -3.211000000
C     3.441000000    -6.965000000    -1.373000000
H     4.375000000    -6.990000000    -0.817000000
C     2.255000000    -6.610000000    -0.705000000
O     2.288000000    -6.559000000     0.708000000
C     2.476000000    -5.396000000     1.409000000
C     2.172000000    -5.434000000     2.744000000
H     1.751000000    -6.338000000     3.174000000
C     2.430000000    -4.348000000     3.505000000
O     1.997000000    -4.411000000     4.830000000
C     1.900000000    -3.288000000     5.628000000
C     3.027000000    -2.712000000     6.256000000
H     3.978000000    -3.214000000     6.096000000
C     2.928000000    -1.480000000     6.950000000
H     3.848000000    -1.043000000     7.329000000
C     1.691000000    -0.858000000     7.024000000
H     1.612000000     0.032000000     7.644000000
C     0.547000000    -1.359000000     6.392000000
C     0.695000000    -2.584000000     5.764000000
H    -0.138000000    -3.142000000     5.345000000
C    -0.006000000    -2.155000000     0.854000000
H     0.143000000    -3.193000000     0.568000000
C     0.626000000    -1.242000000     0.029000000
H     1.290000000    -1.585000000    -0.760000000
C     0.423000000     0.146000000     0.231000000
H     0.916000000     0.813000000    -0.422000000
C    -0.453000000     0.524000000     1.209000000
H    -0.761000000     1.566000000     1.262000000
C    -1.131000000    -0.390000000     2.003000000
H    -1.845000000    -0.015000000     2.732000000
C    -0.987000000    -1.790000000     1.737000000
C    -1.615000000    -2.785000000     2.687000000
O    -2.267000000    -2.415000000     3.594000000
O    -1.408000000    -4.011000000     2.463000000
O    -6.996000000    -5.563000000     2.135000000
H    -6.595000000    -4.694000000     2.112000000
H    -6.578000000    -5.999000000     2.878000000
O    -2.462000000    -5.339000000     5.439000000
H    -2.218000000    -5.271000000     6.363000000
H    -2.607000000    -4.434000000     5.163000000
O    -4.689000000    -5.890000000     3.726000000
H    -4.138000000    -5.569000000     4.440000000
H    -4.485000000    -5.315000000     2.989000000
O    -3.742000000    -2.140000000     5.770000000
H    -3.113000000    -2.170000000     5.048000000
H    -4.522000000    -1.734000000     5.391000000
O    -1.719000000    -4.236000000     8.175000000
H    -0.844000000    -3.900000000     8.367000000
H    -1.898000000    -4.855000000     8.883000000
O    -6.097000000    -1.828000000     4.451000000
H    -5.933000000    -1.466000000     3.581000000
H    -6.933000000    -2.286000000     4.366000000
O    -2.284000000    -8.110000000    -0.653000000
H    -2.199000000    -7.166000000    -0.519000000
H    -3.219000000    -8.246000000    -0.808000000
O    -4.673000000    -3.105000000     2.046000000
H    -4.987000000    -2.217000000     1.878000000
H    -4.013000000    -3.000000000     2.732000000
O    -3.446000000    -8.250000000     3.122000000
H    -3.875000000    -7.395000000     3.161000000
H    -2.579000000    -8.067000000     2.761000000
O    -3.051000000    -1.776000000     8.625000000
H    -2.531000000    -2.580000000     8.649000000
H    -3.042000000    -1.513000000     7.704000000
O    -7.885000000    -4.129000000     4.796000000
H    -6.994000000    -4.471000000     4.719000000
H    -7.935000000    -3.789000000     5.690000000
O    -2.587000000    -0.867000000    -1.266000000
H    -2.145000000    -1.369000000    -1.951000000
H    -1.940000000    -0.798000000    -0.564000000
O     1.112000000    -6.956000000     5.837000000
H     0.420000000    -6.869000000     5.181000000
H     1.798000000    -6.357000000     5.542000000
O    -0.675000000    -6.370000000     3.708000000
H    -0.290000000    -5.567000000     3.359000000
H    -1.425000000    -6.072000000     4.223000000
O    -4.903000000    -6.722000000     7.023000000
H    -5.522000000    -6.511000000     7.721000000
H    -4.498000000    -5.884000000     6.801000000
O    -5.060000000    -3.945000000     7.713000000
H    -6.003000000    -3.784000000     7.750000000
H    -4.707000000    -3.196000000     7.233000000
O    -6.175000000    -1.066000000     1.588000000
H    -6.148000000    -0.123000000     1.426000000
H    -7.026000000    -1.215000000     2.001000000
O    -0.611000000    -8.458000000     1.601000000
H    -0.660000000    -7.583000000     1.986000000
H    -1.160000000    -8.406000000     0.819000000
O    -2.179000000    -5.373000000     0.166000000
H    -3.124000000    -5.291000000     0.294000000
H    -1.797000000    -4.783000000     0.816000000
