215
-1452.75808
C    -4.553000000     2.319000000    -2.770000000
H    -4.050000000     2.401000000    -3.730000000
C    -3.894000000     2.794000000    -1.663000000
C    -4.338000000     2.431000000    -0.391000000
H    -3.747000000     2.704000000     0.480000000
C    -2.468000000     3.362000000    -1.701000000
O    -2.212000000     3.735000000    -3.036000000
H    -1.668000000     2.659000000    -1.423000000
O    -2.291000000     4.513000000    -0.859000000
C    -1.127000000     4.511000000    -0.205000000
C    -1.081000000     4.125000000     1.115000000
H    -2.025000000     3.906000000     1.608000000
C     0.094000000     4.052000000     1.765000000
O    -0.078000000     3.623000000     3.061000000
C     1.311000000     4.352000000     1.156000000
C     2.673000000     4.336000000     1.883000000
H     3.342000000     5.008000000     1.340000000
C     3.261000000     2.968000000     1.946000000
C     4.285000000     2.654000000     1.001000000
H     4.459000000     3.262000000     0.117000000
H     2.530000000     4.731000000     2.890000000
C     1.287000000     4.740000000    -0.190000000
H     2.255000000     4.904000000    -0.656000000
C     0.073000000     4.789000000    -0.910000000
C     0.137000000     5.210000000    -2.341000000
H     0.917000000     5.952000000    -2.526000000
H    -0.819000000     5.696000000    -2.547000000
C     0.213000000     3.947000000    -3.217000000
C     1.449000000     3.382000000    -3.502000000
H     2.314000000     3.995000000    -3.264000000
C    -0.969000000     3.306000000    -3.524000000
C    -0.893000000     2.072000000    -4.120000000
H    -1.785000000     1.465000000    -4.250000000
C     0.402000000     1.476000000    -4.450000000
O     0.409000000     0.161000000    -4.826000000
C     0.807000000    -0.997000000    -4.027000000
C    -0.246000000    -2.095000000    -4.019000000
C    -0.050000000    -3.186000000    -3.200000000
H     0.913000000    -3.308000000    -2.711000000
C    -1.505000000    -1.937000000    -4.573000000
H    -1.652000000    -1.149000000    -5.307000000
O     2.161000000    -1.392000000    -4.189000000
H     0.566000000    -0.810000000    -2.971000000
C     1.562000000     2.131000000    -4.157000000
C     2.906000000     1.524000000    -4.474000000
H     3.596000000     2.356000000    -4.630000000
H     2.951000000     1.044000000    -5.455000000
C     3.502000000     0.548000000    -3.457000000
C     4.311000000     1.083000000    -2.415000000
H     4.382000000     2.166000000    -2.344000000
C     3.153000000    -0.801000000    -3.404000000
C     3.737000000    -1.637000000    -2.401000000
H     3.523000000    -2.702000000    -2.356000000
C     4.411000000    -1.017000000    -1.327000000
O     4.665000000    -1.849000000    -0.266000000
C     3.998000000    -1.668000000     1.012000000
C     3.729000000    -3.016000000     1.731000000
C     3.459000000    -4.112000000     0.942000000
H     3.410000000    -3.977000000    -0.136000000
C     3.637000000    -3.117000000     3.139000000
H     3.875000000    -2.326000000     3.846000000
O     4.717000000    -0.728000000     1.847000000
H     3.018000000    -1.223000000     0.788000000
C     4.763000000     0.309000000    -1.344000000
C     5.621000000     1.043000000    -0.325000000
H     6.137000000     1.923000000    -0.715000000
H     6.277000000     0.271000000     0.083000000
C     4.716000000     1.397000000     0.857000000
C     4.301000000     0.490000000     1.857000000
C     3.278000000     0.748000000     2.830000000
H     2.785000000    -0.090000000     3.315000000
C     2.849000000     2.044000000     2.930000000
O     1.830000000     2.335000000     3.841000000
C     0.433000000     2.288000000     3.365000000
H     0.477000000     1.631000000     2.483000000
C    -0.392000000     1.502000000     4.376000000
C    -1.773000000     1.777000000     4.601000000
H    -2.195000000     2.711000000     4.237000000
C     0.110000000     0.459000000     5.067000000
H     1.192000000     0.350000000     5.063000000
C    -0.645000000    -0.339000000     5.878000000
O     0.048000000    -1.094000000     6.795000000
C    -1.983000000    -0.065000000     6.025000000
H    -2.637000000    -0.665000000     6.653000000
C    -2.574000000     0.921000000     5.355000000
O    -3.976000000     1.099000000     5.470000000
C    -4.631000000     1.784000000     4.476000000
C    -4.883000000     1.176000000     3.231000000
H    -4.506000000     0.172000000     3.051000000
C    -5.092000000     3.119000000     4.678000000
H    -4.903000000     3.587000000     5.640000000
C    -5.709000000     3.809000000     3.625000000
H    -5.962000000     4.859000000     3.741000000
C    -5.879000000     3.168000000     2.359000000
H    -6.356000000     3.680000000     1.527000000
C    -5.541000000     1.826000000     2.220000000
O    -5.795000000     1.197000000     1.020000000
C    -5.481000000     1.663000000    -0.219000000
C    -6.236000000     1.315000000    -1.360000000
H    -7.016000000     0.564000000    -1.262000000
C    -5.699000000     1.595000000    -2.586000000
O    -6.368000000     1.037000000    -3.657000000
C    -5.644000000     0.366000000    -4.646000000
C    -5.047000000    -0.833000000    -4.378000000
H    -5.206000000    -1.280000000    -3.400000000
C    -5.623000000     0.852000000    -5.889000000
H    -5.945000000     1.868000000    -6.101000000
C    -4.989000000     0.192000000    -6.902000000
H    -4.940000000     0.564000000    -7.922000000
C    -4.249000000    -0.961000000    -6.603000000
H    -3.878000000    -1.592000000    -7.408000000
C    -4.286000000    -1.496000000    -5.313000000
O    -3.769000000    -2.722000000    -4.987000000
C    -2.482000000    -2.887000000    -4.422000000
C    -2.310000000    -4.009000000    -3.599000000
H    -3.126000000    -4.709000000    -3.445000000
C    -1.055000000    -4.136000000    -2.999000000
O    -0.964000000    -5.098000000    -2.002000000
C     0.204000000    -5.807000000    -1.722000000
C     0.904000000    -5.740000000    -0.570000000
H     0.596000000    -4.996000000     0.160000000
C     0.666000000    -6.757000000    -2.687000000
H     0.080000000    -6.805000000    -3.601000000
C     1.776000000    -7.568000000    -2.472000000
H     2.080000000    -8.209000000    -3.295000000
C     2.446000000    -7.412000000    -1.291000000
H     3.279000000    -8.057000000    -1.025000000
C     2.111000000    -6.451000000    -0.380000000
O     2.775000000    -6.507000000     0.806000000
C     3.061000000    -5.343000000     1.484000000
C     2.835000000    -5.398000000     2.866000000
H     2.355000000    -6.312000000     3.206000000
C     3.104000000    -4.271000000     3.657000000
O     2.804000000    -4.469000000     4.954000000
C     2.641000000    -3.487000000     5.824000000
C     3.720000000    -3.090000000     6.615000000
H     4.654000000    -3.636000000     6.512000000
C     3.596000000    -1.931000000     7.337000000
H     4.408000000    -1.415000000     7.844000000
C     2.345000000    -1.266000000     7.383000000
H     2.224000000    -0.430000000     8.067000000
C     1.277000000    -1.749000000     6.612000000
C     1.429000000    -2.809000000     5.741000000
H     0.642000000    -3.110000000     5.055000000
C     0.213000000    -1.650000000     0.579000000
H     0.750000000    -2.573000000     0.376000000
C     0.661000000    -0.446000000    -0.060000000
H     1.544000000    -0.469000000    -0.693000000
C     0.030000000     0.780000000     0.126000000
H     0.389000000     1.677000000    -0.331000000
C    -1.174000000     0.804000000     0.864000000
H    -1.746000000     1.728000000     0.887000000
C    -1.569000000    -0.323000000     1.542000000
H    -2.466000000    -0.334000000     2.157000000
C    -0.950000000    -1.588000000     1.412000000
C    -1.564000000    -2.832000000     2.091000000
O    -2.648000000    -2.809000000     2.630000000
O    -0.980000000    -3.875000000     2.076000000
O    -4.196000000    -5.954000000    -1.563000000
H    -4.519000000    -5.056000000    -1.487000000
H    -3.555000000    -6.038000000    -0.856000000
O    -1.405000000    -4.516000000     4.652000000
H    -1.873000000    -3.996000000     3.998000000
H    -0.984000000    -5.212000000     4.148000000
O    -2.631000000    -7.719000000     5.891000000
H    -1.740000000    -7.649000000     5.548000000
H    -2.531000000    -7.614000000     6.837000000
O    -7.499000000    -4.714000000     0.326000000
H    -8.183000000    -5.308000000     0.016000000
H    -6.739000000    -5.279000000     0.469000000
O    -5.023000000    -4.905000000     2.669000000
H    -4.595000000    -4.048000000     2.676000000
H    -4.818000000    -5.282000000     3.525000000
O    -4.338000000    -2.239000000     4.844000000
H    -3.727000000    -2.402000000     4.125000000
H    -5.031000000    -1.707000000     4.453000000
O    -4.882000000    -5.915000000     5.461000000
H    -5.577000000    -6.290000000     6.001000000
H    -4.280000000    -6.643000000     5.304000000
O    -1.449000000    -4.056000000     7.321000000
H    -1.168000000    -3.144000000     7.244000000
H    -1.469000000    -4.377000000     6.419000000
O    -7.289000000    -2.054000000     2.493000000
H    -7.914000000    -2.426000000     1.871000000
H    -6.431000000    -2.311000000     2.154000000
O    -1.357000000    -7.920000000     0.472000000
H    -1.366000000    -8.041000000    -0.478000000
H    -1.879000000    -7.132000000     0.618000000
O    -4.976000000    -2.470000000     1.460000000
H    -4.956000000    -2.212000000     0.539000000
H    -4.058000000    -2.617000000     1.688000000
O    -2.177000000    -0.639000000    -1.665000000
H    -1.373000000    -1.131000000    -1.828000000
H    -1.970000000    -0.084000000    -0.913000000
O     0.233000000    -7.537000000     5.159000000
H     0.995000000    -7.204000000     5.632000000
H    -0.025000000    -6.817000000     4.583000000
O    -0.058000000    -6.128000000     2.766000000
H    -0.141000000    -5.197000000     2.559000000
H    -0.440000000    -6.576000000     2.011000000
O    -4.466000000    -3.189000000     7.737000000
H    -3.587000000    -3.554000000     7.839000000
H    -4.648000000    -3.262000000     6.800000000
O    -5.874000000    -3.749000000    -1.564000000
H    -5.493000000    -2.876000000    -1.477000000
H    -6.487000000    -3.817000000    -0.832000000
O    -4.712000000    -1.334000000    -0.904000000
H    -3.852000000    -0.970000000    -1.116000000
H    -5.327000000    -0.628000000    -1.106000000
O     1.786000000    -8.868000000     2.491000000
H     1.024000000    -9.433000000     2.618000000
H     1.459000000    -7.984000000     2.660000000
O    -2.747000000    -5.488000000     0.890000000
H    -3.600000000    -5.451000000     1.322000000
H    -2.197000000    -4.889000000     1.396000000
