215
-1461.72800
C    -4.604000000     1.954000000    -1.547000000
H    -4.355000000     1.818000000    -2.597000000
C    -3.678000000     2.687000000    -0.770000000
C    -3.936000000     2.914000000     0.555000000
H    -3.320000000     3.467000000     1.260000000
C    -2.305000000     3.130000000    -1.402000000
O    -2.323000000     3.173000000    -2.849000000
H    -1.505000000     2.467000000    -1.042000000
O    -1.824000000     4.419000000    -0.981000000
C    -0.561000000     4.481000000    -0.449000000
C    -0.382000000     4.238000000     0.927000000
H    -1.205000000     4.117000000     1.626000000
C     0.899000000     4.174000000     1.442000000
O     1.002000000     3.636000000     2.677000000
C     2.069000000     4.184000000     0.619000000
C     3.457000000     4.184000000     1.150000000
H     4.168000000     4.750000000     0.546000000
C     3.897000000     2.756000000     1.155000000
C     4.513000000     2.177000000    -0.002000000
H     4.602000000     2.822000000    -0.872000000
H     3.498000000     4.714000000     2.104000000
C     1.872000000     4.378000000    -0.755000000
H     2.761000000     4.531000000    -1.362000000
C     0.564000000     4.547000000    -1.274000000
C     0.334000000     4.758000000    -2.751000000
H     1.155000000     5.189000000    -3.328000000
H    -0.468000000     5.463000000    -2.981000000
C     0.043000000     3.420000000    -3.445000000
C     1.186000000     2.806000000    -3.984000000
H     2.237000000     3.049000000    -3.848000000
C    -1.220000000     2.747000000    -3.429000000
C    -1.351000000     1.525000000    -4.124000000
H    -2.323000000     1.040000000    -4.164000000
C    -0.261000000     0.957000000    -4.694000000
O    -0.313000000    -0.352000000    -5.243000000
C    -0.025000000    -1.299000000    -4.208000000
C    -1.198000000    -2.304000000    -4.200000000
C    -1.033000000    -3.523000000    -3.512000000
H    -0.065000000    -3.670000000    -3.041000000
C    -2.533000000    -1.948000000    -4.550000000
H    -2.779000000    -0.957000000    -4.923000000
O     1.225000000    -1.853000000    -4.590000000
H    -0.017000000    -0.791000000    -3.232000000
C     1.016000000     1.561000000    -4.569000000
C     2.252000000     0.855000000    -5.191000000
H     3.036000000     1.594000000    -5.369000000
H     1.904000000     0.375000000    -6.108000000
C     2.845000000    -0.146000000    -4.159000000
C     3.819000000     0.323000000    -3.261000000
H     4.170000000     1.351000000    -3.312000000
C     2.295000000    -1.396000000    -3.863000000
C     2.639000000    -2.146000000    -2.709000000
H     2.050000000    -3.036000000    -2.503000000
C     3.655000000    -1.658000000    -1.872000000
O     3.926000000    -2.429000000    -0.835000000
C     3.443000000    -1.994000000     0.440000000
C     2.934000000    -3.144000000     1.211000000
C     2.371000000    -4.262000000     0.587000000
H     2.190000000    -4.261000000    -0.484000000
C     2.865000000    -3.117000000     2.621000000
H     3.093000000    -2.170000000     3.103000000
O     4.547000000    -1.352000000     1.150000000
H     2.618000000    -1.280000000     0.300000000
C     4.348000000    -0.485000000    -2.220000000
C     5.404000000     0.126000000    -1.373000000
H     5.934000000     0.933000000    -1.883000000
H     6.062000000    -0.715000000    -1.142000000
C     4.828000000     0.805000000    -0.066000000
C     4.610000000     0.033000000     1.110000000
C     3.944000000     0.579000000     2.220000000
H     3.625000000    -0.050000000     3.047000000
C     3.677000000     1.922000000     2.258000000
O     2.952000000     2.362000000     3.306000000
C     1.515000000     2.370000000     3.136000000
H     1.359000000     1.578000000     2.389000000
C     0.838000000     1.825000000     4.277000000
C    -0.532000000     2.097000000     4.503000000
H    -0.955000000     2.886000000     3.886000000
C     1.544000000     0.948000000     5.158000000
H     2.615000000     0.792000000     5.060000000
C     0.932000000     0.501000000     6.345000000
O     1.590000000    -0.300000000     7.290000000
C    -0.422000000     0.722000000     6.581000000
H    -0.914000000     0.247000000     7.426000000
C    -1.135000000     1.477000000     5.647000000
O    -2.492000000     1.642000000     5.940000000
C    -3.171000000     2.658000000     5.252000000
C    -3.944000000     2.268000000     4.126000000
H    -4.023000000     1.201000000     3.937000000
C    -3.278000000     3.995000000     5.694000000
H    -2.754000000     4.273000000     6.605000000
C    -4.088000000     4.855000000     4.967000000
H    -4.171000000     5.853000000     5.390000000
C    -4.651000000     4.539000000     3.720000000
H    -5.275000000     5.233000000     3.163000000
C    -4.655000000     3.203000000     3.345000000
O    -5.557000000     2.788000000     2.403000000
C    -5.180000000     2.478000000     1.100000000
C    -6.078000000     1.694000000     0.377000000
H    -7.100000000     1.528000000     0.707000000
C    -5.766000000     1.486000000    -0.971000000
O    -6.654000000     0.759000000    -1.684000000
C    -6.398000000     0.404000000    -3.018000000
C    -5.725000000    -0.780000000    -3.308000000
H    -5.487000000    -1.435000000    -2.473000000
C    -6.878000000     1.200000000    -4.102000000
H    -7.377000000     2.152000000    -3.937000000
C    -6.506000000     0.863000000    -5.370000000
H    -6.800000000     1.566000000    -6.145000000
C    -5.698000000    -0.288000000    -5.680000000
H    -5.511000000    -0.459000000    -6.737000000
C    -5.392000000    -1.161000000    -4.631000000
O    -4.795000000    -2.439000000    -4.826000000
C    -3.540000000    -2.853000000    -4.440000000
C    -3.314000000    -4.140000000    -3.953000000
H    -4.048000000    -4.938000000    -3.887000000
C    -2.088000000    -4.447000000    -3.373000000
O    -1.873000000    -5.744000000    -2.820000000
C    -0.570000000    -6.213000000    -2.449000000
C    -0.244000000    -6.065000000    -1.097000000
H    -0.876000000    -5.386000000    -0.530000000
C     0.241000000    -6.846000000    -3.354000000
H     0.046000000    -6.938000000    -4.420000000
C     1.436000000    -7.283000000    -2.817000000
H     2.086000000    -7.913000000    -3.419000000
C     1.772000000    -7.268000000    -1.495000000
H     2.715000000    -7.655000000    -1.119000000
C     0.944000000    -6.592000000    -0.613000000
O     1.324000000    -6.459000000     0.682000000
C     1.923000000    -5.407000000     1.274000000
C     1.921000000    -5.390000000     2.652000000
H     1.623000000    -6.238000000     3.263000000
C     2.387000000    -4.234000000     3.323000000
O     2.386000000    -4.287000000     4.725000000
C     2.813000000    -3.209000000     5.545000000
C     4.157000000    -3.174000000     5.859000000
H     4.825000000    -3.912000000     5.423000000
C     4.708000000    -2.192000000     6.682000000
H     5.767000000    -2.228000000     6.926000000
C     3.869000000    -1.143000000     7.130000000
H     4.310000000    -0.377000000     7.763000000
C     2.468000000    -1.246000000     6.868000000
C     1.974000000    -2.223000000     5.964000000
H     0.914000000    -2.385000000     5.789000000
C    -0.340000000    -2.087000000     0.504000000
H    -0.102000000    -3.093000000     0.170000000
C     0.198000000    -1.020000000    -0.283000000
H     0.696000000    -1.177000000    -1.236000000
C    -0.035000000     0.262000000     0.123000000
H     0.417000000     0.951000000    -0.489000000
C    -0.758000000     0.511000000     1.275000000
H    -0.944000000     1.538000000     1.580000000
C    -1.125000000    -0.570000000     2.153000000
H    -1.682000000    -0.326000000     3.055000000
C    -0.865000000    -1.877000000     1.801000000
C    -1.212000000    -3.094000000     2.616000000
O    -1.625000000    -2.884000000     3.726000000
O    -1.548000000    -4.156000000     2.085000000
O    -4.815000000    -6.836000000    -1.307000000
H    -4.078000000    -7.431000000    -1.167000000
H    -4.512000000    -5.995000000    -0.964000000
O    -0.805000000    -5.195000000     5.088000000
H     0.145000000    -5.079000000     5.113000000
H    -1.105000000    -4.567000000     4.431000000
O    -4.386000000    -8.504000000     6.001000000
H    -4.223000000    -8.414000000     6.940000000
H    -3.694000000    -7.989000000     5.588000000
O    -3.566000000    -5.945000000     2.828000000
H    -2.893000000    -5.348000000     2.501000000
H    -3.669000000    -5.707000000     3.750000000
O     1.073000000    -3.074000000     8.977000000
H     0.904000000    -2.755000000     9.863000000
H     0.212000000    -3.088000000     8.559000000
O    -2.697000000    -2.135000000     6.288000000
H    -2.113000000    -2.260000000     5.540000000
H    -3.027000000    -3.012000000     6.484000000
O    -6.937000000     0.016000000     3.756000000
H    -6.265000000     0.081000000     3.078000000
H    -7.357000000    -0.830000000     3.597000000
O    -7.035000000    -3.964000000     2.007000000
H    -7.093000000    -4.514000000     1.226000000
H    -6.227000000    -4.241000000     2.437000000
O    -1.742000000    -2.988000000     8.630000000
H    -2.565000000    -2.840000000     9.095000000
H    -1.853000000    -2.535000000     7.794000000
O    -3.314000000    -5.200000000     6.046000000
H    -3.410000000    -5.670000000     6.874000000
H    -2.397000000    -5.328000000     5.803000000
O    -3.984000000    -1.224000000     0.228000000
H    -3.058000000    -1.425000000     0.363000000
H    -4.300000000    -0.958000000     1.092000000
O    -1.976000000    -7.916000000     4.591000000
H    -1.654000000    -8.391000000     3.825000000
H    -1.754000000    -7.001000000     4.417000000
O    -5.877000000    -6.921000000     1.924000000
H    -5.001000000    -6.548000000     2.021000000
H    -6.185000000    -7.044000000     2.822000000
O    -5.171000000     0.128000000     6.162000000
H    -5.824000000    -0.089000000     5.497000000
H    -4.365000000    -0.285000000     5.851000000
O    -5.484000000    -3.974000000     4.629000000
H    -6.267000000    -3.957000000     5.179000000
H    -4.797000000    -4.317000000     5.201000000
O    -0.856000000    -9.260000000     1.531000000
H    -1.607000000    -9.720000000     1.905000000
H    -0.988000000    -8.344000000     1.778000000
O    -3.978000000    -1.574000000     3.491000000
H    -3.135000000    -1.977000000     3.698000000
H    -4.628000000    -2.220000000     3.769000000
O    -0.911000000    -6.738000000     2.076000000
H     0.026000000    -6.850000000     1.911000000
H    -1.040000000    -5.790000000     2.083000000
O    -4.059000000    -4.590000000     0.247000000
H    -4.140000000    -3.648000000     0.399000000
H    -3.239000000    -4.832000000     0.678000000
