215
-1455.63239
C    -4.431000000     2.824000000    -2.105000000
H    -4.153000000     2.760000000    -3.154000000
C    -3.612000000     3.340000000    -1.125000000
C    -4.011000000     3.464000000     0.198000000
H    -3.226000000     3.867000000     0.833000000
C    -2.217000000     3.729000000    -1.551000000
O    -2.043000000     4.045000000    -2.972000000
H    -1.685000000     2.801000000    -1.295000000
O    -1.805000000     4.790000000    -0.830000000
C    -0.537000000     4.693000000    -0.323000000
C    -0.386000000     4.388000000     1.000000000
H    -1.304000000     4.311000000     1.579000000
C     0.884000000     4.100000000     1.644000000
O     1.012000000     3.617000000     2.929000000
C     2.006000000     4.128000000     0.787000000
C     3.375000000     3.887000000     1.364000000
H     4.143000000     4.488000000     0.872000000
C     3.873000000     2.421000000     1.376000000
C     4.495000000     1.887000000     0.272000000
H     4.681000000     2.606000000    -0.522000000
H     3.433000000     4.211000000     2.405000000
C     1.840000000     4.402000000    -0.553000000
H     2.722000000     4.295000000    -1.178000000
C     0.632000000     4.701000000    -1.136000000
C     0.480000000     5.037000000    -2.584000000
H     1.459000000     5.398000000    -2.906000000
H    -0.257000000     5.840000000    -2.651000000
C     0.218000000     3.839000000    -3.534000000
C     1.291000000     3.169000000    -4.063000000
H     2.285000000     3.544000000    -3.831000000
C    -1.074000000     3.323000000    -3.598000000
C    -1.297000000     2.069000000    -4.107000000
H    -2.268000000     1.591000000    -4.207000000
C    -0.230000000     1.358000000    -4.620000000
O    -0.563000000     0.035000000    -4.803000000
C    -0.058000000    -0.959000000    -3.925000000
C    -1.092000000    -2.133000000    -3.772000000
C    -0.649000000    -3.426000000    -3.514000000
H     0.395000000    -3.706000000    -3.636000000
C    -2.483000000    -1.812000000    -3.659000000
H    -2.759000000    -0.765000000    -3.749000000
O     1.183000000    -1.654000000    -4.356000000
H    -0.007000000    -0.540000000    -2.909000000
C     1.043000000     1.876000000    -4.567000000
C     2.178000000     1.043000000    -4.987000000
H     2.906000000     1.781000000    -5.332000000
H     1.806000000     0.474000000    -5.842000000
C     2.745000000     0.128000000    -3.868000000
C     3.800000000     0.485000000    -3.002000000
H     4.230000000     1.479000000    -3.090000000
C     2.268000000    -1.177000000    -3.688000000
C     2.784000000    -2.057000000    -2.740000000
H     2.418000000    -3.076000000    -2.651000000
C     3.850000000    -1.639000000    -1.904000000
O     4.265000000    -2.508000000    -0.878000000
C     3.683000000    -2.283000000     0.393000000
C     3.172000000    -3.555000000     1.141000000
C     2.835000000    -4.739000000     0.482000000
H     2.768000000    -4.632000000    -0.598000000
C     3.095000000    -3.502000000     2.509000000
H     3.314000000    -2.569000000     3.023000000
O     4.716000000    -1.604000000     1.151000000
H     2.858000000    -1.579000000     0.212000000
C     4.292000000    -0.342000000    -1.993000000
C     5.414000000     0.132000000    -1.153000000
H     5.943000000     0.875000000    -1.754000000
H     6.068000000    -0.701000000    -0.887000000
C     4.879000000     0.603000000     0.215000000
C     4.659000000    -0.258000000     1.324000000
C     3.975000000     0.282000000     2.448000000
H     3.555000000    -0.407000000     3.177000000
C     3.551000000     1.613000000     2.458000000
O     2.756000000     2.019000000     3.503000000
C     1.345000000     2.243000000     3.271000000
H     1.044000000     1.574000000     2.451000000
C     0.426000000     1.712000000     4.390000000
C    -0.851000000     2.245000000     4.506000000
H    -1.183000000     3.042000000     3.845000000
C     0.876000000     0.683000000     5.187000000
H     1.854000000     0.259000000     4.975000000
C     0.031000000     0.186000000     6.152000000
O     0.334000000    -1.024000000     6.756000000
C    -1.240000000     0.736000000     6.359000000
H    -1.931000000     0.369000000     7.113000000
C    -1.689000000     1.695000000     5.485000000
O    -2.904000000     2.281000000     5.720000000
C    -3.511000000     3.144000000     4.805000000
C    -4.074000000     2.614000000     3.644000000
H    -4.058000000     1.536000000     3.503000000
C    -3.477000000     4.495000000     5.040000000
H    -2.840000000     4.809000000     5.864000000
C    -4.112000000     5.321000000     4.179000000
H    -4.182000000     6.406000000     4.142000000
C    -4.915000000     4.810000000     3.104000000
H    -5.449000000     5.447000000     2.404000000
C    -4.822000000     3.440000000     2.848000000
O    -5.633000000     2.840000000     1.890000000
C    -5.236000000     2.842000000     0.569000000
C    -6.075000000     2.326000000    -0.412000000
H    -7.003000000     1.895000000    -0.045000000
C    -5.674000000     2.326000000    -1.739000000
O    -6.539000000     1.790000000    -2.658000000
C    -6.272000000     0.616000000    -3.358000000
C    -5.437000000    -0.356000000    -2.809000000
H    -4.900000000    -0.315000000    -1.865000000
C    -6.905000000     0.392000000    -4.538000000
H    -7.710000000     1.053000000    -4.848000000
C    -6.642000000    -0.773000000    -5.289000000
H    -7.152000000    -0.959000000    -6.230000000
C    -5.931000000    -1.783000000    -4.720000000
H    -5.885000000    -2.801000000    -5.100000000
C    -5.344000000    -1.536000000    -3.465000000
O    -4.633000000    -2.512000000    -2.927000000
C    -3.314000000    -2.816000000    -3.249000000
C    -2.878000000    -4.047000000    -3.035000000
H    -3.532000000    -4.830000000    -2.659000000
C    -1.602000000    -4.436000000    -3.226000000
O    -1.320000000    -5.724000000    -2.800000000
C    -0.003000000    -6.129000000    -2.491000000
C     0.493000000    -6.197000000    -1.177000000
H    -0.017000000    -5.826000000    -0.292000000
C     0.710000000    -6.708000000    -3.550000000
H     0.333000000    -6.646000000    -4.567000000
C     1.839000000    -7.493000000    -3.254000000
H     2.523000000    -7.931000000    -3.977000000
C     2.278000000    -7.540000000    -1.953000000
H     3.234000000    -8.023000000    -1.768000000
C     1.676000000    -6.885000000    -0.931000000
O     2.209000000    -6.979000000     0.387000000
C     2.393000000    -5.867000000     1.147000000
C     2.396000000    -5.818000000     2.581000000
H     2.147000000    -6.688000000     3.183000000
C     2.737000000    -4.612000000     3.251000000
O     2.853000000    -4.574000000     4.568000000
C     2.798000000    -3.391000000     5.338000000
C     3.913000000    -3.138000000     6.121000000
H     4.800000000    -3.743000000     5.951000000
C     3.851000000    -2.049000000     7.034000000
H     4.697000000    -1.628000000     7.571000000
C     2.619000000    -1.448000000     7.355000000
H     2.553000000    -0.652000000     8.092000000
C     1.510000000    -1.800000000     6.569000000
C     1.574000000    -2.735000000     5.533000000
H     0.723000000    -2.895000000     4.877000000
C    -0.135000000    -1.592000000     0.991000000
H     0.174000000    -2.596000000     0.714000000
C     0.170000000    -0.464000000     0.213000000
H     0.878000000    -0.572000000    -0.605000000
C    -0.450000000     0.785000000     0.520000000
H    -0.208000000     1.676000000    -0.107000000
C    -1.251000000     0.866000000     1.632000000
H    -1.729000000     1.824000000     1.814000000
C    -1.606000000    -0.230000000     2.391000000
H    -2.338000000    -0.150000000     3.192000000
C    -1.010000000    -1.526000000     2.058000000
C    -1.313000000    -2.764000000     2.824000000
O    -2.144000000    -2.668000000     3.713000000
O    -0.891000000    -3.852000000     2.494000000
O    -3.962000000    -4.856000000     3.752000000
H    -3.267000000    -4.198000000     3.744000000
H    -4.199000000    -4.943000000     4.675000000
O    -1.099000000    -8.078000000     2.724000000
H    -0.352000000    -8.622000000     2.475000000
H    -0.711000000    -7.338000000     3.191000000
O    -4.206000000    -4.739000000     8.256000000
H    -4.881000000    -4.325000000     7.719000000
H    -3.812000000    -5.396000000     7.682000000
O    -2.816000000    -4.815000000     0.896000000
H    -2.032000000    -4.555000000     1.380000000
H    -3.461000000    -5.014000000     1.574000000
O    -3.280000000    -6.595000000     6.389000000
H    -2.372000000    -6.381000000     6.603000000
H    -3.224000000    -7.413000000     5.897000000
O    -6.895000000    -3.982000000     3.220000000
H    -6.913000000    -3.916000000     2.265000000
H    -5.977000000    -4.150000000     3.431000000
O    -2.439000000    -3.401000000     6.189000000
H    -3.132000000    -2.758000000     6.340000000
H    -2.144000000    -3.229000000     5.295000000
O     1.075000000    -3.782000000     8.746000000
H     1.213000000    -3.098000000     8.090000000
H     1.939000000    -3.923000000     9.131000000
O    -4.564000000    -0.951000000     6.784000000
H    -5.034000000    -0.118000000     6.771000000
H    -5.250000000    -1.613000000     6.874000000
O    -5.750000000    -5.475000000    -0.523000000
H    -5.990000000    -6.344000000    -0.203000000
H    -5.262000000    -5.643000000    -1.329000000
O    -6.333000000    -2.969000000     0.026000000
H    -5.557000000    -2.511000000    -0.297000000
H    -6.208000000    -3.877000000    -0.251000000
O    -3.450000000    -2.261000000     0.210000000
H    -3.056000000    -3.112000000     0.400000000
H    -2.707000000    -1.692000000     0.010000000
O    -1.035000000    -5.192000000     7.559000000
H    -0.295000000    -4.708000000     7.927000000
H    -1.621000000    -4.515000000     7.223000000
O    -7.028000000    -1.871000000     4.877000000
H    -6.210000000    -1.575000000     4.476000000
H    -7.289000000    -2.630000000     4.355000000
O     1.692000000    -6.945000000     6.205000000
H     1.943000000    -7.751000000     5.755000000
H     0.998000000    -6.573000000     5.662000000
O    -4.424000000    -1.197000000     4.173000000
H    -4.198000000    -0.862000000     5.041000000
H    -3.677000000    -1.743000000     3.926000000
O    -5.362000000    -0.610000000     1.708000000
H    -5.142000000    -0.912000000     2.589000000
H    -4.790000000    -1.116000000     1.131000000
O    -0.403000000    -5.857000000     4.383000000
H    -0.296000000    -5.119000000     3.782000000
H    -1.311000000    -5.794000000     4.680000000
O    -2.720000000    -7.565000000     0.501000000
H    -2.051000000    -7.717000000     1.168000000
H    -2.622000000    -6.641000000     0.270000000
