215
-1450.93370
C    -3.991000000     2.162000000    -2.070000000
H    -3.536000000     1.606000000    -2.886000000
C    -3.264000000     3.041000000    -1.332000000
C    -3.815000000     3.724000000    -0.238000000
H    -3.149000000     4.346000000     0.354000000
C    -1.748000000     3.272000000    -1.739000000
O    -1.540000000     3.081000000    -3.216000000
H    -1.116000000     2.578000000    -1.165000000
O    -1.313000000     4.624000000    -1.348000000
C    -0.098000000     4.782000000    -0.689000000
C    -0.145000000     4.681000000     0.634000000
H    -1.059000000     4.748000000     1.219000000
C     1.005000000     4.341000000     1.379000000
O     0.883000000     4.051000000     2.714000000
C     2.210000000     4.289000000     0.666000000
C     3.538000000     3.957000000     1.346000000
H     4.428000000     4.313000000     0.823000000
C     3.726000000     2.464000000     1.553000000
C     4.568000000     1.776000000     0.691000000
H     4.973000000     2.288000000    -0.178000000
H     3.457000000     4.408000000     2.338000000
C     2.242000000     4.283000000    -0.700000000
H     3.127000000     4.386000000    -1.323000000
C     1.074000000     4.510000000    -1.418000000
C     1.080000000     4.539000000    -2.960000000
H     2.062000000     4.940000000    -3.222000000
H     0.302000000     5.156000000    -3.415000000
C     0.964000000     3.129000000    -3.541000000
C     2.138000000     2.374000000    -3.894000000
H     3.142000000     2.776000000    -3.783000000
C    -0.322000000     2.502000000    -3.613000000
C    -0.452000000     1.268000000    -4.251000000
H    -1.429000000     0.843000000    -4.466000000
C     0.721000000     0.526000000    -4.558000000
O     0.558000000    -0.811000000    -4.956000000
C     0.763000000    -1.896000000    -3.991000000
C    -0.350000000    -2.863000000    -3.863000000
C    -0.103000000    -4.227000000    -3.489000000
H     0.918000000    -4.583000000    -3.376000000
C    -1.699000000    -2.466000000    -4.087000000
H    -1.894000000    -1.539000000    -4.620000000
O     2.071000000    -2.478000000    -4.270000000
H     0.822000000    -1.498000000    -2.968000000
C     1.995000000     1.071000000    -4.390000000
C     3.248000000     0.340000000    -4.691000000
H     4.096000000     0.997000000    -4.896000000
H     3.087000000    -0.161000000    -5.648000000
C     3.670000000    -0.654000000    -3.616000000
C     4.424000000    -0.160000000    -2.555000000
H     4.804000000     0.836000000    -2.768000000
C     3.078000000    -1.923000000    -3.527000000
C     3.421000000    -2.705000000    -2.373000000
H     2.990000000    -3.701000000    -2.316000000
C     4.206000000    -2.189000000    -1.306000000
O     4.074000000    -2.987000000    -0.195000000
C     3.280000000    -2.390000000     0.979000000
C     2.487000000    -3.519000000     1.586000000
C     2.402000000    -4.817000000     1.009000000
H     2.942000000    -5.122000000     0.116000000
C     1.885000000    -3.206000000     2.818000000
H     1.973000000    -2.212000000     3.248000000
O     4.186000000    -1.751000000     1.839000000
H     2.638000000    -1.612000000     0.541000000
C     4.659000000    -0.897000000    -1.370000000
C     5.602000000    -0.406000000    -0.303000000
H     6.232000000     0.347000000    -0.781000000
H     6.309000000    -1.171000000     0.025000000
C     4.715000000     0.374000000     0.700000000
C     4.104000000    -0.378000000     1.738000000
C     3.228000000     0.350000000     2.617000000
H     2.707000000    -0.200000000     3.397000000
C     3.060000000     1.707000000     2.596000000
O     2.201000000     2.340000000     3.542000000
C     0.853000000     2.711000000     3.089000000
H     0.535000000     2.134000000     2.209000000
C    -0.186000000     2.561000000     4.238000000
C    -1.226000000     3.414000000     4.388000000
H    -1.303000000     4.278000000     3.732000000
C    -0.105000000     1.426000000     5.026000000
H     0.763000000     0.773000000     4.974000000
C    -1.029000000     1.209000000     6.023000000
O    -0.978000000     0.065000000     6.821000000
C    -2.121000000     2.023000000     6.181000000
H    -2.886000000     1.837000000     6.931000000
C    -2.263000000     3.136000000     5.330000000
O    -3.277000000     4.048000000     5.451000000
C    -3.925000000     4.702000000     4.401000000
C    -4.469000000     4.014000000     3.272000000
H    -4.417000000     2.928000000     3.250000000
C    -4.063000000     6.119000000     4.622000000
H    -3.561000000     6.586000000     5.466000000
C    -4.542000000     6.878000000     3.555000000
H    -4.493000000     7.958000000     3.665000000
C    -5.034000000     6.225000000     2.430000000
H    -5.435000000     6.786000000     1.589000000
C    -5.003000000     4.780000000     2.254000000
O    -5.726000000     4.186000000     1.231000000
C    -5.129000000     3.500000000     0.106000000
C    -5.886000000     2.583000000    -0.641000000
H    -6.883000000     2.348000000    -0.278000000
C    -5.247000000     1.867000000    -1.711000000
O    -6.030000000     0.859000000    -2.418000000
C    -5.458000000     0.211000000    -3.535000000
C    -4.992000000    -1.108000000    -3.470000000
H    -5.199000000    -1.717000000    -2.594000000
C    -5.288000000     0.878000000    -4.738000000
H    -5.609000000     1.914000000    -4.795000000
C    -4.817000000     0.216000000    -5.873000000
H    -4.808000000     0.696000000    -6.848000000
C    -4.382000000    -1.093000000    -5.769000000
H    -4.039000000    -1.624000000    -6.653000000
C    -4.384000000    -1.726000000    -4.553000000
O    -3.972000000    -3.020000000    -4.387000000
C    -2.749000000    -3.358000000    -3.920000000
C    -2.455000000    -4.665000000    -3.465000000
H    -3.311000000    -5.302000000    -3.260000000
C    -1.111000000    -5.084000000    -3.138000000
O    -0.933000000    -6.387000000    -2.685000000
C     0.087000000    -7.047000000    -2.104000000
C     0.345000000    -6.651000000    -0.827000000
H    -0.122000000    -5.749000000    -0.441000000
C     0.735000000    -8.126000000    -2.707000000
H     0.509000000    -8.494000000    -3.704000000
C     1.653000000    -8.762000000    -2.006000000
H     2.264000000    -9.524000000    -2.482000000
C     1.857000000    -8.412000000    -0.652000000
H     2.752000000    -8.889000000    -0.261000000
C     1.251000000    -7.391000000    -0.021000000
O     1.471000000    -7.060000000     1.237000000
C     1.648000000    -5.797000000     1.689000000
C     0.996000000    -5.465000000     2.873000000
H     0.427000000    -6.236000000     3.386000000
C     1.147000000    -4.198000000     3.478000000
O     0.529000000    -4.042000000     4.688000000
C     0.702000000    -2.923000000     5.427000000
C     1.952000000    -2.819000000     6.089000000
H     2.723000000    -3.553000000     5.870000000
C     2.188000000    -1.724000000     6.884000000
H     3.188000000    -1.636000000     7.302000000
C     1.178000000    -0.842000000     7.181000000
H     1.368000000     0.039000000     7.787000000
C    -0.046000000    -0.918000000     6.573000000
C    -0.306000000    -2.021000000     5.787000000
H    -1.325000000    -2.072000000     5.411000000
C    -1.219000000    -2.722000000     1.175000000
H    -0.994000000    -3.779000000     1.054000000
C    -0.550000000    -1.863000000     0.345000000
H     0.031000000    -2.150000000    -0.527000000
C    -0.814000000    -0.455000000     0.409000000
H    -0.324000000     0.168000000    -0.316000000
C    -1.634000000     0.052000000     1.421000000
H    -1.807000000     1.120000000     1.525000000
C    -2.234000000    -0.846000000     2.294000000
H    -2.772000000    -0.430000000     3.142000000
C    -2.158000000    -2.246000000     2.141000000
C    -2.759000000    -3.213000000     3.135000000
O    -3.564000000    -2.757000000     3.936000000
O    -2.470000000    -4.401000000     3.114000000
O    -3.733000000    -1.518000000     6.838000000
H    -4.025000000    -0.643000000     6.581000000
H    -3.698000000    -2.010000000     6.018000000
O    -3.874000000    -0.775000000    -0.442000000
H    -3.171000000    -0.798000000     0.207000000
H    -4.596000000    -0.332000000     0.002000000
O    -6.075000000    -3.409000000     5.440000000
H    -5.355000000    -3.604000000     4.840000000
H    -5.680000000    -3.452000000     6.310000000
O    -7.340000000    -1.891000000    -0.427000000
H    -6.732000000    -1.405000000     0.130000000
H    -7.111000000    -2.810000000    -0.286000000
O    -3.310000000    -2.556000000     9.244000000
H    -3.246000000    -3.459000000     8.933000000
H    -3.283000000    -2.026000000     8.447000000
O    -2.611000000    -8.641000000     3.044000000
H    -2.988000000    -9.356000000     3.556000000
H    -2.923000000    -7.846000000     3.477000000
O    -4.613000000    -6.077000000     2.774000000
H    -3.869000000    -5.519000000     2.999000000
H    -5.226000000    -5.965000000     3.501000000
O    -5.071000000     0.731000000     5.706000000
H    -5.030000000     1.687000000     5.733000000
H    -6.003000000     0.529000000     5.783000000
O    -4.830000000    -3.678000000    -0.022000000
H    -4.523000000    -2.773000000    -0.074000000
H    -4.125000000    -4.193000000    -0.414000000
O    -2.793000000    -5.540000000     0.640000000
H    -3.541000000    -5.975000000     1.048000000
H    -2.440000000    -4.974000000     1.327000000
O    -2.562000000    -5.094000000     8.153000000
H    -1.832000000    -5.591000000     8.521000000
H    -2.575000000    -5.337000000     7.227000000
O    -3.702000000    -7.552000000     6.025000000
H    -3.349000000    -7.975000000     6.808000000
H    -3.024000000    -6.929000000     5.764000000
O    -7.184000000    -4.903000000     0.086000000
H    -6.313000000    -4.608000000     0.351000000
H    -7.664000000    -5.004000000     0.908000000
O    -5.383000000    -0.784000000     3.348000000
H    -5.206000000    -0.304000000     4.158000000
H    -4.831000000    -1.564000000     3.407000000
O    -2.780000000    -8.304000000     0.302000000
H    -2.681000000    -8.523000000     1.229000000
H    -2.224000000    -7.534000000     0.178000000
O    -8.015000000    -1.721000000     4.600000000
H    -7.387000000    -2.345000000     4.964000000
H    -7.602000000    -1.410000000     3.794000000
O    -6.165000000     0.215000000     1.141000000
H    -6.671000000     0.944000000     1.500000000
H    -5.802000000    -0.225000000     1.910000000
O    -1.810000000    -5.688000000     5.358000000
H    -2.082000000    -5.190000000     4.587000000
H    -0.853000000    -5.643000000     5.347000000
O    -6.225000000    -8.312000000     3.002000000
H    -5.423000000    -7.849000000     2.763000000
H    -5.991000000    -9.239000000     2.952000000
