215
-1480.91166
C    -4.024000000     2.312000000    -2.630000000
H    -3.516000000     1.941000000    -3.517000000
C    -3.334000000     3.036000000    -1.717000000
C    -4.028000000     3.295000000    -0.522000000
H    -3.518000000     3.737000000     0.331000000
C    -1.802000000     3.393000000    -1.815000000
O    -1.449000000     3.672000000    -3.189000000
H    -1.229000000     2.556000000    -1.388000000
O    -1.453000000     4.639000000    -1.094000000
C    -0.208000000     4.580000000    -0.428000000
C    -0.257000000     4.347000000     0.968000000
H    -1.197000000     4.433000000     1.508000000
C     0.890000000     4.072000000     1.684000000
O     0.793000000     3.811000000     3.018000000
C     2.144000000     4.199000000     1.091000000
C     3.442000000     4.040000000     1.927000000
H     4.238000000     4.655000000     1.501000000
C     3.775000000     2.571000000     2.047000000
C     4.608000000     1.963000000     1.060000000
H     5.013000000     2.597000000     0.276000000
H     3.304000000     4.390000000     2.952000000
C     2.211000000     4.565000000    -0.262000000
H     3.205000000     4.640000000    -0.697000000
C     1.053000000     4.713000000    -1.057000000
C     0.981000000     4.987000000    -2.535000000
H     1.814000000     5.519000000    -2.997000000
H     0.064000000     5.507000000    -2.819000000
C     0.902000000     3.649000000    -3.298000000
C     2.070000000     2.902000000    -3.505000000
H     3.033000000     3.335000000    -3.247000000
C    -0.341000000     3.101000000    -3.622000000
C    -0.480000000     1.891000000    -4.211000000
H    -1.461000000     1.489000000    -4.451000000
C     0.648000000     1.087000000    -4.416000000
O     0.459000000    -0.201000000    -4.806000000
C     0.589000000    -1.244000000    -3.807000000
C    -0.502000000    -2.303000000    -3.929000000
C    -0.294000000    -3.452000000    -3.210000000
H     0.607000000    -3.604000000    -2.621000000
C    -1.589000000    -2.229000000    -4.797000000
H    -1.748000000    -1.333000000    -5.392000000
O     1.854000000    -1.866000000    -3.927000000
H     0.496000000    -0.752000000    -2.827000000
C     1.956000000     1.604000000    -4.129000000
C     3.153000000     0.730000000    -4.413000000
H     3.948000000     1.393000000    -4.761000000
H     2.980000000     0.123000000    -5.304000000
C     3.552000000    -0.192000000    -3.215000000
C     4.459000000     0.202000000    -2.243000000
H     4.979000000     1.151000000    -2.352000000
C     2.946000000    -1.452000000    -3.132000000
C     3.246000000    -2.314000000    -2.022000000
H     2.797000000    -3.293000000    -1.873000000
C     4.120000000    -1.880000000    -1.059000000
O     4.332000000    -2.621000000     0.035000000
C     3.486000000    -2.239000000     1.167000000
C     2.758000000    -3.436000000     1.761000000
C     2.622000000    -4.660000000     1.041000000
H     2.980000000    -4.678000000     0.015000000
C     2.237000000    -3.308000000     3.028000000
H     2.322000000    -2.311000000     3.452000000
O     4.222000000    -1.563000000     2.176000000
H     2.611000000    -1.722000000     0.746000000
C     4.736000000    -0.619000000    -1.146000000
C     5.578000000    -0.105000000     0.053000000
H     6.395000000     0.558000000    -0.239000000
H     6.139000000    -0.930000000     0.496000000
C     4.766000000     0.569000000     1.116000000
C     4.181000000    -0.148000000     2.185000000
C     3.518000000     0.407000000     3.261000000
H     3.105000000    -0.235000000     4.034000000
C     3.317000000     1.790000000     3.128000000
O     2.294000000     2.301000000     3.964000000
C     1.004000000     2.398000000     3.350000000
H     0.925000000     1.879000000     2.383000000
C    -0.107000000     1.986000000     4.334000000
C    -1.335000000     2.560000000     4.187000000
H    -1.595000000     3.364000000     3.502000000
C     0.071000000     0.984000000     5.246000000
H     1.028000000     0.469000000     5.228000000
C    -0.935000000     0.550000000     6.049000000
O    -0.665000000    -0.393000000     7.041000000
C    -2.178000000     1.171000000     5.948000000
H    -2.952000000     0.962000000     6.683000000
C    -2.371000000     2.178000000     5.012000000
O    -3.564000000     2.873000000     5.056000000
C    -4.078000000     3.613000000     4.025000000
C    -4.662000000     2.857000000     2.985000000
H    -4.642000000     1.770000000     2.981000000
C    -4.179000000     5.015000000     4.036000000
H    -3.832000000     5.523000000     4.932000000
C    -4.713000000     5.696000000     2.980000000
H    -4.715000000     6.781000000     2.917000000
C    -5.263000000     5.015000000     1.929000000
H    -5.725000000     5.551000000     1.104000000
C    -5.226000000     3.593000000     1.928000000
O    -5.931000000     2.990000000     0.948000000
C    -5.326000000     2.800000000    -0.290000000
C    -5.899000000     2.000000000    -1.206000000
H    -6.915000000     1.634000000    -1.084000000
C    -5.348000000     1.803000000    -2.456000000
O    -5.984000000     0.902000000    -3.358000000
C    -5.522000000     0.268000000    -4.455000000
C    -4.979000000    -1.013000000    -4.354000000
H    -4.757000000    -1.386000000    -3.357000000
C    -5.661000000     0.926000000    -5.652000000
H    -5.977000000     1.966000000    -5.662000000
C    -5.198000000     0.251000000    -6.794000000
H    -5.406000000     0.624000000    -7.793000000
C    -4.671000000    -1.065000000    -6.709000000
H    -4.389000000    -1.574000000    -7.627000000
C    -4.415000000    -1.619000000    -5.455000000
O    -3.908000000    -2.882000000    -5.372000000
C    -2.631000000    -3.117000000    -4.765000000
C    -2.487000000    -4.212000000    -3.930000000
H    -3.379000000    -4.811000000    -3.767000000
C    -1.273000000    -4.425000000    -3.241000000
O    -1.030000000    -5.615000000    -2.597000000
C     0.161000000    -6.099000000    -2.164000000
C     0.436000000    -6.112000000    -0.785000000
H    -0.242000000    -5.566000000    -0.134000000
C     0.919000000    -6.879000000    -3.028000000
H     0.675000000    -7.003000000    -4.080000000
C     2.091000000    -7.579000000    -2.565000000
H     2.616000000    -8.250000000    -3.239000000
C     2.182000000    -7.715000000    -1.196000000
H     3.053000000    -8.269000000    -0.855000000
C     1.416000000    -6.944000000    -0.276000000
O     1.755000000    -6.878000000     0.992000000
C     2.025000000    -5.722000000     1.628000000
C     1.499000000    -5.556000000     2.909000000
H     0.918000000    -6.347000000     3.375000000
C     1.524000000    -4.382000000     3.623000000
O     0.970000000    -4.323000000     4.907000000
C     1.255000000    -3.241000000     5.709000000
C     2.092000000    -3.544000000     6.781000000
H     2.612000000    -4.493000000     6.874000000
C     2.056000000    -2.682000000     7.892000000
H     2.590000000    -2.954000000     8.799000000
C     1.147000000    -1.584000000     7.998000000
H     1.219000000    -0.861000000     8.807000000
C     0.291000000    -1.419000000     6.939000000
C     0.350000000    -2.199000000     5.808000000
H    -0.344000000    -1.992000000     4.998000000
C    -0.622000000    -2.251000000     0.742000000
H    -0.561000000    -3.298000000     0.457000000
C    -0.054000000    -1.297000000    -0.066000000
H     0.546000000    -1.660000000    -0.897000000
C    -0.167000000     0.046000000     0.322000000
H     0.290000000     0.774000000    -0.215000000
C    -0.988000000     0.419000000     1.369000000
H    -1.021000000     1.486000000     1.573000000
C    -1.608000000    -0.555000000     2.168000000
H    -2.353000000    -0.287000000     2.912000000
C    -1.315000000    -1.893000000     1.889000000
C    -1.919000000    -3.012000000     2.735000000
O    -2.602000000    -2.629000000     3.676000000
O    -1.704000000    -4.176000000     2.483000000
O    -2.862000000    -3.292000000     6.274000000
H    -3.230000000    -2.478000000     6.616000000
H    -2.660000000    -3.098000000     5.359000000
O    -3.313000000    -0.993000000    -0.881000000
H    -2.798000000    -0.932000000    -0.077000000
H    -4.223000000    -0.955000000    -0.586000000
O    -5.186000000    -4.571000000     6.633000000
H    -4.322000000    -4.298000000     6.325000000
H    -5.007000000    -5.277000000     7.254000000
O    -7.823000000    -1.865000000    -0.148000000
H    -6.883000000    -1.688000000    -0.192000000
H    -7.922000000    -2.444000000     0.608000000
O    -2.460000000    -4.636000000     8.901000000
H    -1.641000000    -5.121000000     8.800000000
H    -2.560000000    -4.161000000     8.076000000
O    -6.700000000    -3.244000000     2.481000000
H    -7.502000000    -2.723000000     2.510000000
H    -6.828000000    -3.918000000     3.149000000
O    -4.288000000    -5.734000000     3.495000000
H    -3.892000000    -4.872000000     3.622000000
H    -5.224000000    -5.591000000     3.639000000
O    -4.644000000    -1.042000000     7.155000000
H    -4.579000000    -0.362000000     7.826000000
H    -5.585000000    -1.169000000     7.033000000
O    -6.869000000    -5.253000000     4.437000000
H    -6.578000000    -5.234000000     5.349000000
H    -7.715000000    -5.700000000     4.465000000
O    -4.145000000    -3.741000000    -1.522000000
H    -3.805000000    -2.850000000    -1.603000000
H    -3.365000000    -4.287000000    -1.426000000
O    -2.818000000    -6.092000000     0.971000000
H    -3.588000000    -6.290000000     1.505000000
H    -2.385000000    -5.373000000     1.431000000
O    -3.983000000    -7.181000000     6.662000000
H    -3.224000000    -6.974000000     6.116000000
H    -3.727000000    -7.972000000     7.137000000
O    -6.313000000    -4.541000000     0.023000000
H    -5.550000000    -4.293000000    -0.499000000
H    -6.158000000    -4.141000000     0.879000000
O    -4.358000000    -0.742000000     4.130000000
H    -3.995000000    -0.423000000     4.957000000
H    -3.749000000    -1.424000000     3.848000000
O    -1.787000000    -8.453000000    -0.103000000
H    -1.940000000    -8.696000000     0.810000000
H    -2.225000000    -7.608000000    -0.202000000
O    -6.693000000    -1.171000000     5.068000000
H    -6.607000000    -2.097000000     5.295000000
H    -5.906000000    -0.975000000     4.560000000
O    -5.284000000    -0.996000000     1.158000000
H    -4.714000000    -0.272000000     1.416000000
H    -5.397000000    -1.509000000     1.958000000
O    -1.579000000    -5.642000000     5.113000000
H    -0.648000000    -5.508000000     5.290000000
H    -1.754000000    -5.111000000     4.336000000
O    -3.288000000    -8.403000000     3.878000000
H    -3.868000000    -7.664000000     3.698000000
H    -2.479000000    -8.002000000     4.194000000
