215
-1460.59960
C    -3.713000000     2.587000000    -2.200000000
H    -3.160000000     1.980000000    -2.911000000
C    -2.989000000     3.392000000    -1.337000000
C    -3.695000000     3.894000000    -0.254000000
H    -3.139000000     4.455000000     0.494000000
C    -1.490000000     3.643000000    -1.533000000
O    -1.145000000     3.912000000    -2.893000000
H    -0.914000000     2.737000000    -1.296000000
O    -1.052000000     4.682000000    -0.621000000
C     0.161000000     4.441000000    -0.013000000
C     0.065000000     4.251000000     1.338000000
H    -0.838000000     4.427000000     1.918000000
C     1.187000000     3.896000000     2.038000000
O     0.972000000     3.379000000     3.287000000
C     2.469000000     3.992000000     1.457000000
C     3.689000000     3.633000000     2.261000000
H     4.587000000     4.127000000     1.884000000
C     3.996000000     2.148000000     2.305000000
C     4.647000000     1.533000000     1.267000000
H     5.045000000     2.173000000     0.484000000
H     3.633000000     4.079000000     3.256000000
C     2.499000000     4.277000000     0.081000000
H     3.456000000     4.382000000    -0.422000000
C     1.420000000     4.508000000    -0.683000000
C     1.491000000     4.829000000    -2.157000000
H     2.528000000     5.157000000    -2.252000000
H     0.916000000     5.736000000    -2.356000000
C     1.298000000     3.624000000    -3.047000000
C     2.417000000     2.876000000    -3.439000000
H     3.447000000     3.096000000    -3.169000000
C     0.005000000     3.224000000    -3.369000000
C    -0.259000000     2.024000000    -4.038000000
H    -1.258000000     1.613000000    -4.152000000
C     0.846000000     1.287000000    -4.300000000
O     0.470000000     0.018000000    -4.678000000
C     0.657000000    -1.109000000    -3.921000000
C    -0.563000000    -1.915000000    -4.141000000
C    -0.711000000    -3.044000000    -3.342000000
H     0.129000000    -3.325000000    -2.711000000
C    -1.659000000    -1.709000000    -5.029000000
H    -1.623000000    -0.819000000    -5.652000000
O     1.909000000    -1.755000000    -4.126000000
H     0.448000000    -0.803000000    -2.885000000
C     2.123000000     1.650000000    -3.987000000
C     3.276000000     0.759000000    -4.374000000
H     4.102000000     1.450000000    -4.553000000
H     3.074000000     0.192000000    -5.285000000
C     3.540000000    -0.270000000    -3.221000000
C     4.410000000     0.074000000    -2.188000000
H     4.969000000     1.006000000    -2.189000000
C     2.858000000    -1.480000000    -3.203000000
C     3.200000000    -2.398000000    -2.252000000
H     2.645000000    -3.332000000    -2.298000000
C     4.086000000    -2.052000000    -1.211000000
O     4.274000000    -2.966000000    -0.154000000
C     3.485000000    -2.695000000     1.061000000
C     2.838000000    -3.974000000     1.575000000
C     2.510000000    -5.092000000     0.763000000
H     2.658000000    -5.038000000    -0.312000000
C     2.299000000    -3.913000000     2.852000000
H     2.262000000    -2.973000000     3.398000000
O     4.365000000    -2.072000000     2.069000000
H     2.642000000    -2.013000000     0.877000000
C     4.664000000    -0.810000000    -1.168000000
C     5.615000000    -0.394000000    -0.070000000
H     6.304000000     0.369000000    -0.438000000
H     6.155000000    -1.288000000     0.250000000
C     4.943000000     0.179000000     1.136000000
C     4.425000000    -0.676000000     2.129000000
C     3.598000000    -0.107000000     3.139000000
H     3.148000000    -0.700000000     3.930000000
C     3.368000000     1.267000000     3.216000000
O     2.404000000     1.723000000     4.092000000
C     1.076000000     2.014000000     3.419000000
H     1.032000000     1.449000000     2.476000000
C    -0.112000000     1.456000000     4.243000000
C    -1.379000000     2.024000000     4.025000000
H    -1.467000000     2.811000000     3.280000000
C     0.055000000     0.424000000     5.148000000
H     1.044000000    -0.013000000     5.257000000
C    -1.039000000    -0.136000000     5.816000000
O    -0.773000000    -1.166000000     6.736000000
C    -2.274000000     0.485000000     5.630000000
H    -3.133000000     0.136000000     6.198000000
C    -2.418000000     1.580000000     4.764000000
O    -3.715000000     2.120000000     4.642000000
C    -4.073000000     3.244000000     3.970000000
C    -4.737000000     3.216000000     2.785000000
H    -5.171000000     2.299000000     2.395000000
C    -3.752000000     4.505000000     4.455000000
H    -3.116000000     4.487000000     5.336000000
C    -4.119000000     5.735000000     3.791000000
H    -3.919000000     6.732000000     4.174000000
C    -4.794000000     5.686000000     2.600000000
H    -5.239000000     6.579000000     2.168000000
C    -5.134000000     4.378000000     2.078000000
O    -5.815000000     4.250000000     0.894000000
C    -5.129000000     3.792000000    -0.195000000
C    -5.862000000     3.076000000    -1.107000000
H    -6.944000000     3.019000000    -1.022000000
C    -5.147000000     2.467000000    -2.145000000
O    -5.836000000     1.671000000    -3.025000000
C    -5.309000000     1.180000000    -4.228000000
C    -4.932000000    -0.159000000    -4.269000000
H    -5.019000000    -0.767000000    -3.371000000
C    -5.508000000     1.901000000    -5.433000000
H    -5.914000000     2.908000000    -5.398000000
C    -5.013000000     1.412000000    -6.610000000
H    -4.974000000     2.063000000    -7.479000000
C    -4.459000000     0.157000000    -6.683000000
H    -4.052000000    -0.201000000    -7.625000000
C    -4.468000000    -0.661000000    -5.540000000
O    -4.017000000    -2.001000000    -5.532000000
C    -2.857000000    -2.393000000    -4.901000000
C    -3.028000000    -3.384000000    -3.926000000
H    -3.927000000    -3.994000000    -3.934000000
C    -1.873000000    -3.719000000    -3.253000000
O    -1.899000000    -4.809000000    -2.422000000
C    -0.828000000    -5.605000000    -2.241000000
C    -0.263000000    -5.787000000    -0.985000000
H    -0.386000000    -4.922000000    -0.338000000
C    -0.590000000    -6.507000000    -3.311000000
H    -1.099000000    -6.367000000    -4.262000000
C     0.367000000    -7.543000000    -3.157000000
H     0.495000000    -8.310000000    -3.917000000
C     0.866000000    -7.776000000    -1.873000000
H     1.545000000    -8.587000000    -1.622000000
C     0.634000000    -6.845000000    -0.814000000
O     1.376000000    -7.117000000     0.369000000
C     1.825000000    -6.164000000     1.255000000
C     1.427000000    -6.176000000     2.588000000
H     0.966000000    -7.033000000     3.071000000
C     1.667000000    -5.046000000     3.355000000
O     0.985000000    -5.080000000     4.557000000
C     1.031000000    -4.102000000     5.551000000
C     2.156000000    -4.075000000     6.403000000
H     2.977000000    -4.785000000     6.360000000
C     2.292000000    -3.062000000     7.367000000
H     3.099000000    -3.210000000     8.080000000
C     1.332000000    -2.035000000     7.374000000
H     1.429000000    -1.246000000     8.115000000
C     0.163000000    -2.153000000     6.592000000
C     0.022000000    -3.123000000     5.637000000
H    -0.831000000    -3.206000000     4.968000000
C    -0.391000000    -1.803000000     0.382000000
H     0.031000000    -2.802000000     0.302000000
C     0.328000000    -0.684000000     0.011000000
H     1.262000000    -0.935000000    -0.485000000
C    -0.060000000     0.606000000     0.314000000
H     0.455000000     1.444000000    -0.079000000
C    -1.215000000     0.811000000     1.017000000
H    -1.645000000     1.804000000     1.119000000
C    -1.929000000    -0.325000000     1.483000000
H    -2.875000000    -0.270000000     2.016000000
C    -1.551000000    -1.582000000     1.152000000
C    -2.338000000    -2.758000000     1.714000000
O    -3.503000000    -2.591000000     2.167000000
O    -1.874000000    -3.884000000     1.529000000
O    -5.293000000    -7.533000000     0.317000000
H    -5.436000000    -7.625000000     1.259000000
H    -4.868000000    -6.681000000     0.221000000
O    -7.786000000     0.049000000     0.525000000
H    -8.344000000     0.826000000     0.560000000
H    -7.305000000     0.062000000     1.352000000
O    -7.886000000    -4.197000000    -2.729000000
H    -7.561000000    -3.803000000    -1.920000000
H    -7.445000000    -5.045000000    -2.777000000
O    -7.875000000    -5.178000000     1.495000000
H    -8.282000000    -4.328000000     1.325000000
H    -6.934000000    -5.003000000     1.466000000
O    -4.767000000    -7.047000000     3.046000000
H    -3.822000000    -7.171000000     2.956000000
H    -4.865000000    -6.129000000     3.298000000
O    -4.573000000    -1.772000000    -0.531000000
H    -4.589000000    -1.694000000     0.423000000
H    -3.691000000    -1.493000000    -0.779000000
O    -7.139000000    -1.487000000    -1.479000000
H    -6.251000000    -1.739000000    -1.225000000
H    -7.466000000    -0.979000000    -0.736000000
O    -6.930000000     0.543000000     3.219000000
H    -6.297000000    -0.122000000     3.490000000
H    -6.978000000     1.146000000     3.961000000
O    -2.989000000    -6.738000000     5.419000000
H    -3.326000000    -5.842000000     5.414000000
H    -3.765000000    -7.286000000     5.535000000
O    -3.579000000    -3.038000000     6.474000000
H    -3.131000000    -2.315000000     6.913000000
H    -3.660000000    -3.713000000     7.148000000
O    -4.546000000    -0.918000000     4.117000000
H    -4.118000000    -0.945000000     4.973000000
H    -4.054000000    -1.542000000     3.584000000
O    -2.174000000    -8.105000000     0.501000000
H    -1.552000000    -7.663000000     1.079000000
H    -2.902000000    -7.489000000     0.418000000
O    -5.546000000    -3.966000000     1.081000000
H    -4.905000000    -3.540000000     1.650000000
H    -5.128000000    -3.983000000     0.220000000
O    -6.779000000    -2.555000000     3.844000000
H    -5.924000000    -2.142000000     3.964000000
H    -6.881000000    -3.121000000     4.609000000
O    -4.142000000    -4.391000000     4.173000000
H    -3.940000000    -3.899000000     4.969000000
H    -3.565000000    -4.017000000     3.507000000
O    -8.471000000    -2.522000000     1.221000000
H    -8.131000000    -1.870000000     0.607000000
H    -7.728000000    -2.729000000     1.787000000
O    -3.407000000    -5.573000000     0.097000000
H    -3.059000000    -4.894000000     0.676000000
H    -3.006000000    -5.392000000    -0.753000000
O    -4.290000000    -7.541000000    -2.486000000
H    -5.089000000    -7.286000000    -2.947000000
H    -4.581000000    -7.742000000    -1.596000000
O    -1.495000000    -6.538000000     2.611000000
H    -1.583000000    -6.390000000     3.553000000
H    -1.414000000    -5.660000000     2.238000000
