215
-1457.68043
C    -4.263000000     2.440000000    -2.653000000
H    -3.816000000     2.119000000    -3.591000000
C    -3.456000000     3.126000000    -1.755000000
C    -3.974000000     3.538000000    -0.518000000
H    -3.371000000     4.168000000     0.131000000
C    -2.026000000     3.311000000    -2.173000000
O    -1.784000000     3.323000000    -3.608000000
H    -1.501000000     2.423000000    -1.791000000
O    -1.565000000     4.528000000    -1.552000000
C    -0.299000000     4.541000000    -0.879000000
C    -0.331000000     4.455000000     0.545000000
H    -1.234000000     4.512000000     1.147000000
C     0.936000000     4.296000000     1.216000000
O     0.956000000     4.025000000     2.596000000
C     2.071000000     4.231000000     0.421000000
C     3.418000000     4.087000000     1.087000000
H     4.288000000     4.550000000     0.617000000
C     3.679000000     2.586000000     1.332000000
C     4.369000000     1.911000000     0.376000000
H     4.663000000     2.393000000    -0.553000000
H     3.575000000     4.628000000     2.023000000
C     2.102000000     4.321000000    -0.969000000
H     2.998000000     4.458000000    -1.569000000
C     0.877000000     4.473000000    -1.645000000
C     0.837000000     4.599000000    -3.199000000
H     1.765000000     5.032000000    -3.580000000
H     0.064000000     5.281000000    -3.559000000
C     0.591000000     3.212000000    -3.784000000
C     1.687000000     2.398000000    -4.128000000
H     2.693000000     2.741000000    -3.896000000
C    -0.692000000     2.653000000    -4.010000000
C    -0.916000000     1.354000000    -4.356000000
H    -1.909000000     0.923000000    -4.453000000
C     0.196000000     0.560000000    -4.631000000
O    -0.042000000    -0.744000000    -4.850000000
C     0.218000000    -1.708000000    -3.814000000
C    -0.987000000    -2.697000000    -3.538000000
C    -0.751000000    -3.865000000    -2.794000000
H     0.291000000    -4.068000000    -2.561000000
C    -2.301000000    -2.342000000    -3.676000000
H    -2.479000000    -1.344000000    -4.069000000
O     1.509000000    -2.346000000    -4.018000000
H     0.274000000    -1.149000000    -2.868000000
C     1.522000000     1.068000000    -4.495000000
C     2.752000000     0.210000000    -4.763000000
H     3.535000000     0.907000000    -5.069000000
H     2.566000000    -0.357000000    -5.678000000
C     3.139000000    -0.598000000    -3.571000000
C     4.115000000    -0.105000000    -2.684000000
H     4.490000000     0.902000000    -2.842000000
C     2.599000000    -1.827000000    -3.287000000
C     3.051000000    -2.661000000    -2.321000000
H     2.694000000    -3.662000000    -2.090000000
C     3.917000000    -2.050000000    -1.366000000
O     4.207000000    -2.727000000    -0.164000000
C     3.637000000    -2.308000000     1.102000000
C     3.120000000    -3.522000000     1.864000000
C     2.946000000    -4.727000000     1.270000000
H     3.136000000    -4.944000000     0.222000000
C     2.553000000    -3.315000000     3.157000000
H     2.674000000    -2.331000000     3.602000000
O     4.495000000    -1.431000000     1.869000000
H     2.730000000    -1.741000000     0.847000000
C     4.419000000    -0.756000000    -1.525000000
C     5.460000000    -0.180000000    -0.558000000
H     6.217000000     0.386000000    -1.105000000
H     5.958000000    -1.044000000    -0.112000000
C     4.760000000     0.575000000     0.517000000
C     4.339000000    -0.036000000     1.698000000
C     3.702000000     0.697000000     2.699000000
H     3.293000000     0.217000000     3.585000000
C     3.310000000     1.955000000     2.462000000
O     2.577000000     2.549000000     3.409000000
C     1.173000000     2.692000000     3.038000000
H     0.967000000     2.003000000     2.205000000
C     0.295000000     2.407000000     4.284000000
C    -1.009000000     2.927000000     4.254000000
H    -1.341000000     3.620000000     3.486000000
C     0.696000000     1.549000000     5.301000000
H     1.640000000     1.046000000     5.108000000
C    -0.296000000     1.014000000     6.174000000
O    -0.036000000    -0.019000000     7.047000000
C    -1.614000000     1.528000000     6.165000000
H    -2.262000000     1.078000000     6.913000000
C    -1.915000000     2.467000000     5.207000000
O    -3.234000000     2.945000000     5.238000000
C    -3.772000000     3.650000000     4.256000000
C    -4.464000000     3.083000000     3.201000000
H    -4.543000000     2.000000000     3.171000000
C    -3.509000000     5.030000000     4.189000000
H    -2.935000000     5.547000000     4.953000000
C    -4.000000000     5.806000000     3.100000000
H    -3.725000000     6.852000000     2.988000000
C    -4.830000000     5.231000000     2.151000000
H    -5.182000000     6.028000000     1.500000000
C    -5.018000000     3.868000000     2.144000000
O    -5.746000000     3.226000000     1.191000000
C    -5.290000000     3.190000000    -0.124000000
C    -6.068000000     2.472000000    -1.018000000
H    -7.089000000     2.151000000    -0.827000000
C    -5.610000000     2.193000000    -2.332000000
O    -6.504000000     1.509000000    -3.200000000
C    -5.993000000     0.509000000    -4.017000000
C    -5.468000000    -0.628000000    -3.388000000
H    -5.393000000    -0.729000000    -2.309000000
C    -5.997000000     0.583000000    -5.419000000
H    -6.279000000     1.462000000    -5.992000000
C    -5.551000000    -0.518000000    -6.135000000
H    -5.607000000    -0.499000000    -7.220000000
C    -4.934000000    -1.643000000    -5.493000000
H    -4.623000000    -2.512000000    -6.067000000
C    -4.995000000    -1.674000000    -4.097000000
O    -4.606000000    -2.861000000    -3.478000000
C    -3.310000000    -3.268000000    -3.443000000
C    -3.082000000    -4.480000000    -2.811000000
H    -3.893000000    -5.094000000    -2.429000000
C    -1.786000000    -4.677000000    -2.360000000
O    -1.610000000    -5.740000000    -1.547000000
C    -0.460000000    -6.475000000    -1.298000000
C     0.165000000    -6.476000000    -0.018000000
H    -0.290000000    -6.065000000     0.880000000
C     0.171000000    -7.062000000    -2.375000000
H    -0.273000000    -6.866000000    -3.348000000
C     1.474000000    -7.629000000    -2.263000000
H     1.958000000    -8.068000000    -3.132000000
C     2.028000000    -7.611000000    -0.970000000
H     3.037000000    -7.984000000    -0.812000000
C     1.409000000    -7.034000000     0.178000000
O     2.083000000    -6.944000000     1.388000000
C     2.267000000    -5.762000000     2.008000000
C     1.831000000    -5.557000000     3.277000000
H     1.464000000    -6.338000000     3.938000000
C     1.945000000    -4.265000000     3.867000000
O     1.609000000    -4.098000000     5.217000000
C     1.897000000    -2.996000000     5.923000000
C     3.181000000    -2.633000000     6.328000000
H     4.015000000    -3.310000000     6.163000000
C     3.416000000    -1.428000000     7.014000000
H     4.430000000    -1.241000000     7.359000000
C     2.360000000    -0.644000000     7.358000000
H     2.541000000     0.214000000     8.001000000
C     1.040000000    -0.864000000     6.795000000
C     0.856000000    -2.035000000     6.107000000
H    -0.135000000    -2.291000000     5.742000000
C     0.200000000    -1.421000000     0.490000000
H     0.645000000    -2.386000000     0.261000000
C     0.703000000    -0.244000000    -0.123000000
H     1.484000000    -0.334000000    -0.875000000
C     0.128000000     0.968000000    -0.010000000
H     0.466000000     1.840000000    -0.505000000
C    -0.899000000     1.199000000     0.919000000
H    -1.387000000     2.147000000     1.129000000
C    -1.432000000     0.032000000     1.469000000
H    -2.240000000     0.143000000     2.188000000
C    -0.931000000    -1.244000000     1.309000000
C    -1.563000000    -2.398000000     2.059000000
O    -2.523000000    -2.193000000     2.822000000
O    -1.306000000    -3.522000000     1.695000000
O    -2.976000000    -1.542000000     5.303000000
H    -3.583000000    -0.809000000     5.201000000
H    -2.752000000    -1.794000000     4.407000000
O    -6.623000000    -6.764000000     3.542000000
H    -6.398000000    -7.305000000     4.299000000
H    -6.009000000    -7.039000000     2.860000000
O    -6.912000000     0.756000000     1.758000000
H    -6.544000000     1.545000000     2.155000000
H    -6.510000000     0.035000000     2.242000000
O    -4.650000000    -4.288000000     7.153000000
H    -3.857000000    -3.855000000     7.470000000
H    -4.909000000    -4.867000000     7.870000000
O    -1.269000000    -5.450000000     3.639000000
H    -0.469000000    -5.908000000     3.382000000
H    -1.506000000    -4.932000000     2.870000000
O    -5.002000000    -7.078000000     1.310000000
H    -5.731000000    -6.923000000     0.709000000
H    -4.382000000    -6.374000000     1.120000000
O    -7.297000000    -4.339000000     2.615000000
H    -6.431000000    -4.011000000     2.374000000
H    -7.146000000    -5.248000000     2.874000000
O    -5.078000000    -1.569000000     2.489000000
H    -4.122000000    -1.605000000     2.466000000
H    -5.288000000    -1.373000000     3.402000000
O    -5.532000000    -0.183000000     4.881000000
H    -6.114000000     0.561000000     4.730000000
H    -5.724000000    -0.459000000     5.778000000
O    -2.212000000    -9.194000000     3.436000000
H    -1.348000000    -9.519000000     3.687000000
H    -2.467000000    -8.613000000     4.152000000
O    -6.732000000    -1.643000000    -0.261000000
H    -5.812000000    -1.881000000    -0.376000000
H    -6.717000000    -0.923000000     0.369000000
O    -4.041000000    -2.101000000    -0.280000000
H    -3.765000000    -2.659000000     0.448000000
H    -3.389000000    -1.401000000    -0.306000000
O    -4.056000000    -4.195000000     4.346000000
H    -3.535000000    -3.396000000     4.267000000
H    -4.375000000    -4.185000000     5.248000000
O    -3.237000000    -7.228000000     5.145000000
H    -3.871000000    -6.750000000     4.610000000
H    -2.520000000    -6.607000000     5.278000000
O    -8.082000000    -2.127000000     3.710000000
H    -7.709000000    -2.143000000     4.591000000
H    -7.749000000    -2.922000000     3.294000000
O    -3.777000000    -4.505000000     1.407000000
H    -4.107000000    -4.171000000     2.241000000
H    -2.850000000    -4.266000000     1.404000000
O    -6.421000000    -3.969000000    -1.654000000
H    -6.155000000    -3.445000000    -0.899000000
H    -6.515000000    -4.857000000    -1.308000000
O    -2.221000000    -2.790000000     7.743000000
H    -1.550000000    -3.432000000     7.512000000
H    -2.454000000    -2.377000000     6.911000000
O    -0.746000000    -5.247000000     6.596000000
H    -0.958000000    -4.861000000     5.745000000
H     0.009000000    -5.809000000     6.423000000
