215
-1446.50736
C    -3.914000000     2.559000000    -2.231000000
H    -3.609000000     2.030000000    -3.130000000
C    -3.133000000     3.358000000    -1.406000000
C    -3.711000000     4.016000000    -0.346000000
H    -3.211000000     4.755000000     0.275000000
C    -1.646000000     3.495000000    -1.727000000
O    -1.453000000     3.361000000    -3.188000000
H    -1.091000000     2.703000000    -1.203000000
O    -1.075000000     4.759000000    -1.312000000
C     0.193000000     4.722000000    -0.745000000
C     0.263000000     4.786000000     0.655000000
H    -0.585000000     4.885000000     1.328000000
C     1.469000000     4.557000000     1.280000000
O     1.533000000     4.363000000     2.653000000
C     2.595000000     4.302000000     0.501000000
C     3.921000000     3.904000000     1.149000000
H     4.833000000     4.142000000     0.597000000
C     4.008000000     2.364000000     1.329000000
C     4.575000000     1.563000000     0.363000000
H     5.082000000     1.929000000    -0.525000000
H     4.041000000     4.377000000     2.126000000
C     2.507000000     4.191000000    -0.883000000
H     3.390000000     3.801000000    -1.382000000
C     1.292000000     4.350000000    -1.556000000
C     1.239000000     4.243000000    -3.054000000
H     2.203000000     4.568000000    -3.450000000
H     0.617000000     4.982000000    -3.565000000
C     0.857000000     2.953000000    -3.540000000
C     1.848000000     2.096000000    -4.028000000
H     2.835000000     2.514000000    -3.849000000
C    -0.450000000     2.571000000    -3.627000000
C    -0.753000000     1.347000000    -4.181000000
H    -1.776000000     0.981000000    -4.172000000
C     0.217000000     0.445000000    -4.563000000
O    -0.187000000    -0.885000000    -4.773000000
C     0.066000000    -1.869000000    -3.761000000
C    -1.100000000    -2.792000000    -3.406000000
C    -0.944000000    -4.077000000    -2.900000000
H     0.054000000    -4.398000000    -2.612000000
C    -2.466000000    -2.339000000    -3.585000000
H    -2.541000000    -1.343000000    -4.013000000
O     1.253000000    -2.534000000    -4.163000000
H     0.218000000    -1.242000000    -2.870000000
C     1.591000000     0.859000000    -4.571000000
C     2.690000000    -0.125000000    -4.929000000
H     3.592000000     0.437000000    -5.178000000
H     2.520000000    -0.759000000    -5.801000000
C     3.025000000    -1.003000000    -3.724000000
C     4.025000000    -0.665000000    -2.767000000
H     4.557000000     0.258000000    -2.986000000
C     2.312000000    -2.147000000    -3.417000000
C     2.740000000    -3.041000000    -2.399000000
H     2.148000000    -3.931000000    -2.203000000
C     3.687000000    -2.582000000    -1.448000000
O     3.915000000    -3.258000000    -0.224000000
C     3.139000000    -2.688000000     0.880000000
C     2.512000000    -3.787000000     1.793000000
C     2.300000000    -5.071000000     1.326000000
H     2.817000000    -5.379000000     0.421000000
C     2.099000000    -3.448000000     3.024000000
H     2.186000000    -2.425000000     3.383000000
O     3.987000000    -1.808000000     1.693000000
H     2.344000000    -2.034000000     0.493000000
C     4.319000000    -1.348000000    -1.597000000
C     5.348000000    -0.671000000    -0.555000000
H     6.025000000     0.005000000    -1.082000000
H     5.868000000    -1.519000000    -0.106000000
C     4.536000000     0.134000000     0.453000000
C     3.942000000    -0.446000000     1.578000000
C     3.423000000     0.424000000     2.624000000
H     2.994000000     0.050000000     3.550000000
C     3.417000000     1.792000000     2.426000000
O     2.853000000     2.520000000     3.385000000
C     1.538000000     3.061000000     3.095000000
H     1.270000000     2.434000000     2.231000000
C     0.497000000     2.721000000     4.144000000
C    -0.828000000     3.236000000     4.068000000
H    -1.251000000     3.831000000     3.263000000
C     0.829000000     1.828000000     5.189000000
H     1.826000000     1.433000000     5.365000000
C    -0.189000000     1.177000000     5.827000000
O     0.029000000     0.145000000     6.736000000
C    -1.552000000     1.633000000     5.713000000
H    -2.304000000     1.136000000     6.319000000
C    -1.824000000     2.726000000     4.907000000
O    -3.193000000     3.018000000     4.831000000
C    -3.711000000     4.002000000     4.069000000
C    -4.525000000     3.758000000     2.963000000
H    -4.750000000     2.720000000     2.734000000
C    -3.267000000     5.308000000     4.389000000
H    -2.572000000     5.564000000     5.186000000
C    -3.796000000     6.344000000     3.625000000
H    -3.403000000     7.351000000     3.741000000
C    -4.578000000     6.123000000     2.508000000
H    -4.817000000     6.967000000     1.866000000
C    -4.953000000     4.794000000     2.161000000
O    -5.597000000     4.623000000     0.966000000
C    -5.072000000     3.839000000    -0.038000000
C    -5.869000000     3.076000000    -0.914000000
H    -6.932000000     2.952000000    -0.719000000
C    -5.234000000     2.480000000    -2.005000000
O    -6.111000000     1.713000000    -2.839000000
C    -5.748000000     0.784000000    -3.721000000
C    -5.346000000    -0.461000000    -3.267000000
H    -5.119000000    -0.610000000    -2.215000000
C    -5.937000000     0.953000000    -5.106000000
H    -6.234000000     1.968000000    -5.358000000
C    -5.753000000    -0.078000000    -6.015000000
H    -6.048000000     0.030000000    -7.056000000
C    -5.391000000    -1.294000000    -5.534000000
H    -5.284000000    -2.099000000    -6.256000000
C    -5.125000000    -1.488000000    -4.169000000
O    -4.794000000    -2.776000000    -3.671000000
C    -3.545000000    -3.185000000    -3.415000000
C    -3.293000000    -4.461000000    -2.896000000
H    -4.100000000    -5.148000000    -2.656000000
C    -2.016000000    -4.915000000    -2.594000000
O    -1.904000000    -6.072000000    -1.890000000
C    -0.704000000    -6.615000000    -1.605000000
C    -0.334000000    -6.669000000    -0.257000000
H    -0.889000000    -6.135000000     0.510000000
C     0.140000000    -7.195000000    -2.553000000
H    -0.111000000    -7.153000000    -3.610000000
C     1.374000000    -7.735000000    -2.147000000
H     2.092000000    -7.976000000    -2.927000000
C     1.720000000    -7.900000000    -0.819000000
H     2.725000000    -8.195000000    -0.527000000
C     0.815000000    -7.333000000     0.121000000
O     1.228000000    -7.274000000     1.441000000
C     1.631000000    -6.030000000     2.063000000
C     1.346000000    -5.763000000     3.386000000
H     0.855000000    -6.470000000     4.050000000
C     1.639000000    -4.480000000     3.895000000
O     1.412000000    -4.220000000     5.202000000
C     1.685000000    -3.009000000     5.732000000
C     3.023000000    -2.649000000     6.027000000
H     3.808000000    -3.363000000     5.792000000
C     3.349000000    -1.434000000     6.646000000
H     4.364000000    -1.196000000     6.951000000
C     2.348000000    -0.525000000     6.983000000
H     2.617000000     0.449000000     7.383000000
C     1.037000000    -0.837000000     6.606000000
C     0.690000000    -2.019000000     5.955000000
H    -0.296000000    -2.298000000     5.593000000
C    -1.295000000    -2.281000000     0.784000000
H    -1.413000000    -3.286000000     0.388000000
C    -0.873000000    -1.197000000     0.022000000
H    -0.757000000    -1.396000000    -1.040000000
C    -0.855000000     0.052000000     0.614000000
H    -0.442000000     0.940000000     0.070000000
C    -1.249000000     0.235000000     1.970000000
H    -1.352000000     1.261000000     2.316000000
C    -1.469000000    -0.895000000     2.743000000
H    -1.757000000    -0.813000000     3.788000000
C    -1.578000000    -2.152000000     2.139000000
C    -1.982000000    -3.405000000     3.002000000
O    -2.436000000    -3.370000000     4.152000000
O    -1.915000000    -4.473000000     2.395000000
O    -3.394000000    -1.086000000     8.590000000
H    -2.832000000    -1.207000000     7.825000000
H    -4.013000000    -0.405000000     8.328000000
O    -2.845000000    -1.550000000     6.041000000
H    -3.403000000    -0.898000000     5.616000000
H    -2.579000000    -2.135000000     5.332000000
O    -4.240000000    -0.724000000     0.172000000
H    -3.458000000    -0.178000000     0.255000000
H    -4.701000000    -0.609000000     1.003000000
O    -3.622000000    -4.172000000     7.727000000
H    -2.729000000    -4.497000000     7.847000000
H    -3.540000000    -3.488000000     7.063000000
O    -1.481000000    -6.913000000     3.168000000
H    -1.337000000    -6.662000000     4.080000000
H    -1.661000000    -6.088000000     2.718000000
O    -7.157000000    -5.317000000     1.094000000
H    -6.208000000    -5.344000000     0.969000000
H    -7.445000000    -6.216000000     0.935000000
O    -0.603000000    -4.484000000     8.360000000
H    -0.759000000    -4.945000000     7.537000000
H     0.298000000    -4.168000000     8.291000000
O    -5.585000000    -2.902000000     4.487000000
H    -4.638000000    -2.907000000     4.626000000
H    -5.956000000    -2.814000000     5.365000000
O    -5.035000000     0.204000000     5.478000000
H    -5.781000000    -0.330000000     5.753000000
H    -5.120000000     1.012000000     5.986000000
O    -5.772000000    -2.969000000    -0.491000000
H    -5.224000000    -2.187000000    -0.553000000
H    -5.176000000    -3.656000000    -0.195000000
O    -4.034000000    -4.879000000     0.609000000
H    -4.086000000    -5.833000000     0.546000000
H    -3.220000000    -4.715000000     1.086000000
O    -5.814000000    -5.832000000     6.599000000
H    -5.701000000    -6.510000000     7.266000000
H    -5.032000000    -5.901000000     6.052000000
O    -1.210000000    -9.523000000     2.648000000
H    -1.006000000    -8.596000000     2.770000000
H    -2.166000000    -9.555000000     2.612000000
O    -7.739000000    -3.261000000     2.998000000
H    -6.896000000    -3.078000000     3.414000000
H    -7.539000000    -3.916000000     2.330000000
O    -1.230000000    -7.599000000     7.678000000
H    -1.687000000    -7.245000000     6.916000000
H    -1.036000000    -8.506000000     7.441000000
O    -3.887000000    -5.491000000     4.423000000
H    -3.838000000    -6.106000000     3.692000000
H    -3.462000000    -4.697000000     4.098000000
O    -4.513000000    -7.414000000     1.103000000
H    -4.235000000    -7.879000000     1.892000000
H    -4.850000000    -8.100000000     0.526000000
O    -6.038000000     0.273000000     2.673000000
H    -6.758000000    -0.214000000     3.072000000
H    -5.485000000     0.532000000     3.410000000
O    -1.666000000    -5.362000000     5.705000000
H    -2.589000000    -5.343000000     5.455000000
H    -1.255000000    -4.694000000     5.155000000
