215
-1435.50643
C     3.917000000     2.840000000    -2.077000000
H     3.928000000     2.064000000    -2.837000000
C     4.131000000     2.612000000    -0.741000000
C     4.039000000     3.632000000     0.197000000
H     4.265000000     3.449000000     1.244000000
C     4.172000000     1.091000000    -0.277000000
O     4.688000000     0.199000000    -1.276000000
H     3.153000000     0.710000000    -0.115000000
O     4.817000000     0.963000000     1.011000000
C     4.246000000     0.224000000     1.961000000
C     3.411000000     0.897000000     2.836000000
H     3.355000000     1.981000000     2.892000000
C     2.765000000     0.065000000     3.800000000
O     1.824000000     0.730000000     4.552000000
C     2.807000000    -1.324000000     3.774000000
C     1.966000000    -2.131000000     4.746000000
H     2.497000000    -3.076000000     4.874000000
C     0.626000000    -2.493000000     4.059000000
C     0.424000000    -3.702000000     3.428000000
H     1.220000000    -4.436000000     3.329000000
H     1.768000000    -1.766000000     5.756000000
C     3.543000000    -1.945000000     2.739000000
H     3.418000000    -3.012000000     2.574000000
C     4.312000000    -1.173000000     1.873000000
C     5.147000000    -1.918000000     0.827000000
H     5.491000000    -2.828000000     1.324000000
H     6.021000000    -1.331000000     0.538000000
C     4.259000000    -2.126000000    -0.395000000
C     3.595000000    -3.315000000    -0.627000000
H     3.729000000    -4.157000000     0.048000000
C     4.051000000    -1.089000000    -1.323000000
C     3.254000000    -1.318000000    -2.424000000
H     3.134000000    -0.484000000    -3.110000000
C     2.729000000    -2.573000000    -2.715000000
O     1.824000000    -2.697000000    -3.747000000
C     0.486000000    -2.421000000    -3.419000000
C    -0.111000000    -1.339000000    -4.264000000
C    -1.454000000    -1.177000000    -4.412000000
H    -2.061000000    -1.864000000    -3.828000000
C     0.707000000    -0.458000000    -4.989000000
H     1.791000000    -0.528000000    -4.944000000
O    -0.187000000    -3.669000000    -3.363000000
H     0.594000000    -1.853000000    -2.483000000
C     2.840000000    -3.574000000    -1.737000000
C     2.096000000    -4.902000000    -1.847000000
H     2.612000000    -5.694000000    -1.300000000
H     2.189000000    -5.208000000    -2.890000000
C     0.614000000    -4.700000000    -1.313000000
C     0.278000000    -5.109000000     0.017000000
H     1.065000000    -5.545000000     0.628000000
C    -0.424000000    -4.148000000    -2.079000000
C    -1.648000000    -3.948000000    -1.538000000
H    -2.427000000    -3.520000000    -2.164000000
C    -1.960000000    -4.384000000    -0.255000000
O    -3.259000000    -4.107000000     0.225000000
C    -3.305000000    -2.952000000     1.129000000
C    -4.644000000    -2.240000000     0.789000000
C    -5.129000000    -2.255000000    -0.528000000
H    -4.752000000    -3.021000000    -1.201000000
C    -5.224000000    -1.411000000     1.740000000
H    -4.726000000    -1.203000000     2.683000000
O    -3.193000000    -3.297000000     2.471000000
H    -2.524000000    -2.229000000     0.851000000
C    -0.961000000    -4.938000000     0.554000000
C    -1.115000000    -5.253000000     2.027000000
H    -0.396000000    -6.020000000     2.322000000
H    -2.094000000    -5.685000000     2.248000000
C    -0.906000000    -4.003000000     2.877000000
C    -1.928000000    -3.129000000     2.991000000
C    -1.754000000    -1.945000000     3.663000000
H    -2.619000000    -1.293000000     3.749000000
C    -0.432000000    -1.551000000     4.094000000
O    -0.460000000    -0.296000000     4.691000000
C     0.482000000     0.702000000     3.983000000
H     0.560000000     0.361000000     2.941000000
C    -0.198000000     2.093000000     3.907000000
C     0.444000000     3.294000000     4.196000000
H     1.375000000     3.272000000     4.757000000
C    -1.551000000     2.121000000     3.450000000
H    -2.224000000     1.285000000     3.275000000
C    -2.116000000     3.400000000     3.266000000
O    -3.367000000     3.527000000     2.856000000
C    -1.382000000     4.550000000     3.452000000
H    -1.841000000     5.517000000     3.263000000
C    -0.144000000     4.524000000     4.008000000
O     0.691000000     5.595000000     4.236000000
C     2.045000000     5.637000000     3.874000000
C     2.291000000     5.876000000     2.503000000
H     1.436000000     6.111000000     1.874000000
C     3.077000000     5.515000000     4.760000000
H     2.876000000     5.432000000     5.825000000
C     4.377000000     5.371000000     4.270000000
H     5.189000000     5.059000000     4.923000000
C     4.507000000     5.415000000     2.862000000
H     5.498000000     5.275000000     2.437000000
C     3.552000000     5.859000000     1.993000000
O     3.640000000     5.976000000     0.581000000
C     3.694000000     4.933000000    -0.266000000
C     3.479000000     5.135000000    -1.595000000
H     3.212000000     6.122000000    -1.965000000
C     3.580000000     4.096000000    -2.484000000
O     3.309000000     4.356000000    -3.827000000
C     3.414000000     3.356000000    -4.790000000
C     2.149000000     2.850000000    -5.201000000
H     1.216000000     2.966000000    -4.656000000
C     4.559000000     3.112000000    -5.477000000
H     5.513000000     3.483000000    -5.111000000
C     4.511000000     2.248000000    -6.561000000
H     5.416000000     2.110000000    -7.148000000
C     3.313000000     1.616000000    -6.946000000
H     3.237000000     0.971000000    -7.817000000
C     2.181000000     1.913000000    -6.214000000
O     0.937000000     1.395000000    -6.632000000
C     0.180000000     0.610000000    -5.779000000
C    -1.217000000     0.695000000    -5.908000000
H    -1.585000000     1.534000000    -6.492000000
C    -2.013000000    -0.216000000    -5.261000000
O    -3.392000000    -0.050000000    -5.332000000
C    -4.263000000    -0.985000000    -4.848000000
C    -4.998000000    -0.844000000    -3.653000000
H    -4.840000000     0.021000000    -3.014000000
C    -4.608000000    -2.016000000    -5.748000000
H    -4.140000000    -2.070000000    -6.728000000
C    -5.462000000    -3.074000000    -5.292000000
H    -5.844000000    -3.839000000    -5.963000000
C    -6.191000000    -2.917000000    -4.115000000
H    -7.006000000    -3.595000000    -3.877000000
C    -5.944000000    -1.826000000    -3.286000000
O    -6.761000000    -1.692000000    -2.195000000
C    -6.226000000    -1.548000000    -0.905000000
C    -6.867000000    -0.718000000     0.015000000
H    -7.776000000    -0.218000000    -0.311000000
C    -6.245000000    -0.596000000     1.248000000
O    -6.843000000     0.244000000     2.115000000
C    -6.112000000     1.023000000     2.988000000
C    -6.438000000     1.093000000     4.314000000
H    -7.283000000     0.508000000     4.669000000
C    -5.777000000     1.935000000     5.215000000
H    -5.925000000     1.828000000     6.286000000
C    -4.771000000     2.755000000     4.656000000
H    -4.163000000     3.378000000     5.307000000
C    -4.401000000     2.722000000     3.294000000
C    -5.144000000     1.866000000     2.462000000
H    -5.017000000     1.894000000     1.383000000
C    -1.608000000     0.423000000    -0.699000000
H    -2.513000000     0.006000000    -1.132000000
C    -0.639000000    -0.396000000    -0.136000000
H    -0.837000000    -1.465000000    -0.161000000
C     0.510000000     0.102000000     0.471000000
H     1.234000000    -0.565000000     0.991000000
C     0.658000000     1.484000000     0.600000000
H     1.425000000     1.868000000     1.267000000
C    -0.245000000     2.300000000    -0.071000000
H    -0.190000000     3.378000000     0.057000000
C    -1.380000000     1.797000000    -0.688000000
C    -2.280000000     2.738000000    -1.406000000
O    -2.018000000     3.925000000    -1.468000000
O    -3.167000000     2.416000000    -2.173000000
O     1.055000000     7.448000000    -0.422000000
H     0.666000000     7.159000000    -1.247000000
H     0.350000000     7.916000000     0.025000000
O    -6.174000000     4.925000000     0.689000000
H    -6.767000000     4.943000000     1.440000000
H    -6.577000000     5.514000000     0.051000000
O    -3.155000000     5.959000000     0.721000000
H    -2.618000000     5.243000000     0.382000000
H    -3.918000000     5.526000000     1.103000000
O    -2.173000000     8.125000000     2.113000000
H    -2.531000000     7.589000000     1.405000000
H    -1.421000000     8.569000000     1.721000000
O    -0.492000000     6.616000000    -4.912000000
H    -0.344000000     6.301000000    -4.020000000
H    -1.117000000     5.994000000    -5.284000000
O    -6.588000000     5.566000000    -3.569000000
H    -5.750000000     5.189000000    -3.303000000
H    -7.076000000     5.665000000    -2.752000000
O    -5.811000000     2.949000000    -2.005000000
H    -4.978000000     2.540000000    -2.238000000
H    -5.571000000     3.660000000    -1.411000000
O    -1.458000000     8.862000000    -2.670000000
H    -0.797000000     9.122000000    -3.312000000
H    -2.293000000     8.984000000    -3.122000000
O    -3.060000000     3.024000000    -4.726000000
H    -3.179000000     2.669000000    -3.845000000
H    -3.477000000     3.885000000    -4.696000000
O    -5.937000000     1.363000000    -6.615000000
H    -6.562000000     1.721000000    -5.984000000
H    -5.091000000     1.420000000    -6.172000000
O    -8.670000000     2.715000000     0.236000000
H    -7.713000000     2.752000000     0.258000000
H    -8.906000000     3.137000000    -0.590000000
O    -3.919000000     6.150000000    -5.345000000
H    -4.450000000     6.831000000    -4.932000000
H    -4.467000000     5.819000000    -6.058000000
O    -4.858000000     7.282000000    -0.863000000
H    -4.137000000     6.901000000    -0.362000000
H    -4.803000000     6.860000000    -1.720000000
O    -3.901000000     5.270000000    -2.418000000
H    -3.432000000     5.604000000    -3.183000000
H    -3.244000000     4.772000000    -1.933000000
O    -1.864000000     4.446000000    -6.545000000
H    -2.323000000     3.941000000    -5.874000000
H    -2.438000000     5.193000000    -6.716000000
O    -7.585000000     2.322000000    -4.257000000
H    -8.095000000     3.132000000    -4.230000000
H    -6.970000000     2.403000000    -3.528000000
O    -0.576000000     5.805000000    -2.439000000
H    -0.972000000     6.606000000    -2.096000000
H    -1.155000000     5.104000000    -2.139000000
O    -7.789000000     6.089000000    -1.069000000
H    -8.587000000     6.364000000    -1.520000000
H    -7.828000000     6.532000000    -0.221000000
O    -7.788000000     5.285000000    -5.909000000
H    -7.152000000     5.341000000    -5.196000000
H    -8.169000000     6.162000000    -5.960000000
