215
-1454.17244
C     3.809000000     2.361000000    -2.480000000
H     3.784000000     1.495000000    -3.136000000
C     4.050000000     2.194000000    -1.141000000
C     4.054000000     3.373000000    -0.335000000
H     4.056000000     3.179000000     0.734000000
C     4.175000000     0.822000000    -0.507000000
O     4.759000000    -0.146000000    -1.379000000
H     3.134000000     0.497000000    -0.367000000
O     4.934000000     0.713000000     0.693000000
C     4.397000000    -0.075000000     1.678000000
C     3.672000000     0.534000000     2.722000000
H     3.638000000     1.617000000     2.820000000
C     2.975000000    -0.214000000     3.654000000
O     2.137000000     0.480000000     4.521000000
C     2.949000000    -1.589000000     3.566000000
C     2.152000000    -2.446000000     4.557000000
H     2.557000000    -3.459000000     4.577000000
C     0.627000000    -2.520000000     4.077000000
C     0.357000000    -3.654000000     3.343000000
H     1.151000000    -4.379000000     3.187000000
H     2.166000000    -2.139000000     5.605000000
C     3.620000000    -2.195000000     2.497000000
H     3.455000000    -3.264000000     2.390000000
C     4.454000000    -1.491000000     1.624000000
C     5.185000000    -2.267000000     0.582000000
H     5.543000000    -3.185000000     1.053000000
H     6.091000000    -1.672000000     0.453000000
C     4.273000000    -2.440000000    -0.660000000
C     3.567000000    -3.615000000    -0.822000000
H     3.834000000    -4.453000000    -0.183000000
C     4.123000000    -1.385000000    -1.563000000
C     3.328000000    -1.540000000    -2.705000000
H     3.265000000    -0.714000000    -3.409000000
C     2.550000000    -2.755000000    -2.893000000
O     1.503000000    -2.783000000    -3.766000000
C     0.205000000    -2.507000000    -3.273000000
C    -0.443000000    -1.448000000    -4.185000000
C    -1.721000000    -1.004000000    -3.936000000
H    -2.375000000    -1.533000000    -3.247000000
C     0.285000000    -0.814000000    -5.209000000
H     1.269000000    -1.156000000    -5.522000000
O    -0.525000000    -3.721000000    -3.258000000
H     0.321000000    -2.081000000    -2.265000000
C     2.645000000    -3.739000000    -1.885000000
C     1.663000000    -4.917000000    -1.870000000
H     2.123000000    -5.714000000    -1.282000000
H     1.442000000    -5.169000000    -2.909000000
C     0.343000000    -4.629000000    -1.208000000
C     0.110000000    -5.035000000     0.153000000
H     0.946000000    -5.399000000     0.746000000
C    -0.742000000    -4.125000000    -1.963000000
C    -1.964000000    -3.824000000    -1.412000000
H    -2.813000000    -3.465000000    -1.987000000
C    -2.171000000    -4.129000000    -0.050000000
O    -3.391000000    -3.726000000     0.449000000
C    -3.400000000    -2.527000000     1.345000000
C    -4.726000000    -1.721000000     1.038000000
C    -5.349000000    -1.795000000    -0.223000000
H    -4.971000000    -2.395000000    -1.047000000
C    -5.239000000    -0.790000000     1.972000000
H    -4.800000000    -0.514000000     2.928000000
O    -3.261000000    -2.928000000     2.764000000
H    -2.569000000    -1.844000000     1.114000000
C    -1.159000000    -4.788000000     0.682000000
C    -1.292000000    -5.047000000     2.152000000
H    -0.653000000    -5.881000000     2.449000000
H    -2.311000000    -5.373000000     2.369000000
C    -0.974000000    -3.835000000     2.987000000
C    -1.962000000    -2.876000000     3.315000000
C    -1.671000000    -1.689000000     3.906000000
H    -2.474000000    -0.984000000     4.105000000
C    -0.379000000    -1.450000000     4.332000000
O    -0.071000000    -0.324000000     5.006000000
C     0.744000000     0.684000000     4.225000000
H     0.594000000     0.378000000     3.179000000
C     0.154000000     2.047000000     4.341000000
C     1.017000000     3.111000000     4.295000000
H     2.097000000     3.048000000     4.395000000
C    -1.219000000     2.214000000     4.233000000
H    -1.821000000     1.319000000     4.364000000
C    -1.791000000     3.498000000     4.001000000
O    -3.073000000     3.801000000     3.764000000
C    -0.865000000     4.565000000     3.794000000
H    -1.201000000     5.557000000     3.504000000
C     0.505000000     4.324000000     4.015000000
O     1.333000000     5.411000000     3.795000000
C     2.570000000     5.403000000     3.188000000
C     2.620000000     5.790000000     1.866000000
H     1.698000000     6.003000000     1.330000000
C     3.693000000     5.067000000     3.912000000
H     3.580000000     4.723000000     4.937000000
C     4.920000000     5.110000000     3.302000000
H     5.698000000     4.726000000     3.957000000
C     5.049000000     5.490000000     1.985000000
H     5.998000000     5.317000000     1.486000000
C     3.876000000     5.829000000     1.249000000
O     3.924000000     5.880000000    -0.132000000
C     4.046000000     4.656000000    -0.933000000
C     3.818000000     4.763000000    -2.326000000
H     3.903000000     5.705000000    -2.862000000
C     3.745000000     3.648000000    -3.080000000
O     3.574000000     3.828000000    -4.438000000
C     3.370000000     2.847000000    -5.325000000
C     2.087000000     2.357000000    -5.525000000
H     1.236000000     2.543000000    -4.875000000
C     4.424000000     2.471000000    -6.139000000
H     5.393000000     2.961000000    -6.093000000
C     4.213000000     1.544000000    -7.146000000
H     5.025000000     1.144000000    -7.747000000
C     2.905000000     0.991000000    -7.352000000
H     2.683000000     0.174000000    -8.034000000
C     1.818000000     1.423000000    -6.499000000
O     0.506000000     0.944000000    -6.773000000
C    -0.295000000     0.271000000    -5.898000000
C    -1.465000000     0.821000000    -5.545000000
H    -1.900000000     1.686000000    -6.038000000
C    -2.217000000     0.111000000    -4.618000000
O    -3.563000000     0.520000000    -4.587000000
C    -4.687000000    -0.248000000    -4.402000000
C    -5.336000000    -0.248000000    -3.183000000
H    -5.023000000     0.452000000    -2.413000000
C    -5.018000000    -1.186000000    -5.321000000
H    -4.560000000    -1.132000000    -6.306000000
C    -6.104000000    -2.083000000    -5.171000000
H    -6.413000000    -2.684000000    -6.023000000
C    -6.741000000    -2.092000000    -3.940000000
H    -7.589000000    -2.746000000    -3.754000000
C    -6.373000000    -1.160000000    -2.927000000
O    -7.085000000    -1.113000000    -1.735000000
C    -6.445000000    -0.987000000    -0.518000000
C    -6.923000000    -0.121000000     0.440000000
H    -7.707000000     0.582000000     0.168000000
C    -6.292000000    -0.013000000     1.667000000
O    -6.784000000     0.905000000     2.591000000
C    -6.028000000     1.532000000     3.537000000
C    -6.239000000     1.226000000     4.882000000
H    -7.044000000     0.531000000     5.108000000
C    -5.514000000     1.916000000     5.850000000
H    -5.671000000     1.802000000     6.920000000
C    -4.429000000     2.747000000     5.547000000
H    -3.796000000     3.227000000     6.289000000
C    -4.207000000     3.012000000     4.174000000
C    -4.992000000     2.452000000     3.193000000
H    -4.721000000     2.722000000     2.175000000
C    -2.125000000     0.710000000    -0.571000000
H    -2.975000000     0.397000000    -1.172000000
C    -1.011000000    -0.173000000    -0.533000000
H    -1.066000000    -1.110000000    -1.082000000
C     0.179000000     0.307000000     0.009000000
H     1.096000000    -0.282000000     0.060000000
C     0.238000000     1.567000000     0.642000000
H     1.136000000     1.972000000     1.101000000
C    -0.897000000     2.343000000     0.552000000
H    -0.824000000     3.313000000     1.038000000
C    -2.064000000     1.920000000    -0.004000000
C    -3.137000000     2.938000000    -0.265000000
O    -3.067000000     4.110000000    -0.004000000
O    -4.141000000     2.574000000    -0.890000000
O     1.229000000     6.875000000    -2.338000000
H     0.386000000     6.695000000    -1.923000000
H     1.848000000     6.308000000    -1.878000000
O    -6.232000000     4.933000000     1.646000000
H    -5.796000000     4.235000000     1.157000000
H    -7.165000000     4.731000000     1.571000000
O    -3.016000000     6.260000000     1.876000000
H    -2.924000000     5.668000000     1.129000000
H    -3.084000000     5.679000000     2.634000000
O    -0.715000000     8.025000000     1.682000000
H    -0.482000000     8.573000000     0.932000000
H    -1.495000000     7.548000000     1.397000000
O    -4.576000000     8.656000000     1.808000000
H    -3.957000000     7.939000000     1.946000000
H    -5.434000000     8.268000000     1.981000000
O     0.236000000     3.280000000    -2.705000000
H    -0.020000000     2.408000000    -2.405000000
H     0.209000000     3.822000000    -1.917000000
O    -6.526000000     6.831000000    -2.946000000
H    -5.750000000     6.440000000    -2.544000000
H    -7.140000000     6.944000000    -2.220000000
O    -6.593000000     3.576000000    -1.137000000
H    -5.880000000     2.944000000    -1.039000000
H    -6.270000000     4.201000000    -1.786000000
O    -2.210000000     6.563000000    -3.578000000
H    -1.689000000     7.211000000    -4.051000000
H    -2.939000000     6.365000000    -4.167000000
O    -3.832000000     3.208000000    -3.339000000
H    -4.007000000     2.944000000    -2.435000000
H    -3.524000000     2.409000000    -3.766000000
O    -3.473000000     3.917000000    -6.216000000
H    -2.748000000     3.734000000    -5.618000000
H    -4.094000000     4.422000000    -5.692000000
O    -9.032000000     4.555000000    -0.187000000
H    -8.187000000     4.266000000    -0.532000000
H    -9.674000000     4.210000000    -0.808000000
O    -2.429000000     8.190000000    -1.475000000
H    -2.415000000     8.718000000    -2.274000000
H    -3.121000000     7.546000000    -1.626000000
O    -4.413000000     5.471000000    -1.769000000
H    -4.057000000     5.005000000    -2.525000000
H    -4.073000000     4.995000000    -1.012000000
O    -0.612000000     4.531000000    -4.875000000
H    -0.251000000     3.991000000    -4.173000000
H    -1.161000000     5.173000000    -4.425000000
O    -5.637000000     7.248000000     4.663000000
H    -5.139000000     6.713000000     4.044000000
H    -4.980000000     7.579000000     5.276000000
O    -6.175000000     2.459000000    -4.476000000
H    -6.632000000     3.295000000    -4.383000000
H    -5.281000000     2.641000000    -4.185000000
O    -0.959000000     5.646000000    -0.914000000
H    -1.432000000     6.248000000    -1.489000000
H    -1.621000000     5.015000000    -0.631000000
O    -7.291000000     7.508000000     1.231000000
H    -8.135000000     7.296000000     1.632000000
H    -6.815000000     6.678000000     1.221000000
