215
-1421.25265
C    -4.598000000     2.332000000    -0.791000000
H    -4.081000000     2.050000000    -1.705000000
C    -3.748000000     2.965000000     0.108000000
C    -4.182000000     3.114000000     1.440000000
H    -3.444000000     3.532000000     2.120000000
C    -2.410000000     3.430000000    -0.380000000
O    -2.444000000     3.966000000    -1.692000000
H    -1.615000000     2.670000000    -0.386000000
O    -2.005000000     4.492000000     0.507000000
C    -0.673000000     4.604000000     0.930000000
C    -0.325000000     4.233000000     2.232000000
H    -1.145000000     4.025000000     2.915000000
C     1.011000000     3.949000000     2.552000000
O     1.341000000     3.208000000     3.688000000
C     2.071000000     4.168000000     1.626000000
C     3.537000000     3.839000000     1.985000000
H     4.150000000     4.613000000     1.520000000
C     3.896000000     2.441000000     1.685000000
C     4.398000000     2.117000000     0.424000000
H     4.446000000     2.878000000    -0.351000000
H     3.664000000     3.974000000     3.062000000
C     1.696000000     4.708000000     0.449000000
H     2.440000000     4.902000000    -0.319000000
C     0.378000000     4.843000000     0.020000000
C     0.121000000     5.312000000    -1.400000000
H     1.028000000     5.834000000    -1.710000000
H    -0.716000000     6.013000000    -1.379000000
C    -0.158000000     4.173000000    -2.368000000
C     0.939000000     3.645000000    -3.015000000
H     1.948000000     4.035000000    -2.904000000
C    -1.413000000     3.544000000    -2.525000000
C    -1.525000000     2.407000000    -3.326000000
H    -2.454000000     1.844000000    -3.309000000
C    -0.406000000     1.882000000    -3.998000000
O    -0.522000000     0.813000000    -4.785000000
C    -0.114000000    -0.466000000    -4.302000000
C    -1.220000000    -1.532000000    -4.490000000
C    -0.862000000    -2.875000000    -4.478000000
H     0.168000000    -3.206000000    -4.370000000
C    -2.534000000    -1.188000000    -4.458000000
H    -2.738000000    -0.135000000    -4.282000000
O     1.250000000    -0.800000000    -4.775000000
H    -0.028000000    -0.377000000    -3.209000000
C     0.810000000     2.513000000    -3.846000000
C     2.051000000     2.054000000    -4.615000000
H     2.757000000     2.873000000    -4.768000000
H     1.746000000     1.724000000    -5.610000000
C     2.743000000     0.909000000    -3.850000000
C     3.757000000     1.198000000    -2.901000000
H     4.050000000     2.241000000    -2.818000000
C     2.317000000    -0.422000000    -3.995000000
C     2.909000000    -1.435000000    -3.215000000
H     2.492000000    -2.435000000    -3.292000000
C     3.867000000    -1.090000000    -2.259000000
O     4.395000000    -2.129000000    -1.516000000
C     3.886000000    -2.210000000    -0.103000000
C     3.356000000    -3.611000000     0.251000000
C     2.795000000    -4.533000000    -0.654000000
H     2.638000000    -4.152000000    -1.659000000
C     3.521000000    -4.036000000     1.532000000
H     3.847000000    -3.269000000     2.230000000
O     4.809000000    -1.586000000     0.792000000
H     2.998000000    -1.563000000    -0.055000000
C     4.389000000     0.162000000    -2.208000000
C     5.429000000     0.464000000    -1.163000000
H     5.927000000     1.355000000    -1.552000000
H     6.053000000    -0.429000000    -1.237000000
C     4.811000000     0.765000000     0.219000000
C     4.674000000    -0.257000000     1.139000000
C     4.180000000     0.052000000     2.369000000
H     4.116000000    -0.673000000     3.176000000
C     3.697000000     1.444000000     2.570000000
O     2.948000000     1.625000000     3.735000000
C     1.498000000     1.837000000     3.523000000
H     1.297000000     1.700000000     2.451000000
C     0.575000000     0.949000000     4.354000000
C    -0.559000000     1.455000000     4.990000000
H    -0.800000000     2.507000000     4.862000000
C     0.893000000    -0.428000000     4.531000000
H     1.794000000    -0.838000000     4.081000000
C     0.046000000    -1.273000000     5.258000000
O     0.421000000    -2.619000000     5.343000000
C    -1.074000000    -0.747000000     5.862000000
H    -1.646000000    -1.395000000     6.521000000
C    -1.324000000     0.562000000     5.815000000
O    -2.483000000     0.957000000     6.453000000
C    -3.228000000     1.988000000     5.881000000
C    -4.082000000     1.884000000     4.766000000
H    -3.998000000     0.925000000     4.261000000
C    -3.308000000     3.171000000     6.540000000
H    -2.750000000     3.293000000     7.465000000
C    -4.085000000     4.236000000     6.023000000
H    -4.049000000     5.184000000     6.554000000
C    -4.917000000     4.059000000     4.893000000
H    -5.543000000     4.849000000     4.486000000
C    -4.877000000     2.875000000     4.221000000
O    -5.778000000     2.574000000     3.206000000
C    -5.402000000     2.637000000     1.830000000
C    -6.225000000     2.012000000     0.941000000
H    -7.150000000     1.518000000     1.228000000
C    -5.849000000     1.900000000    -0.396000000
O    -6.665000000     1.112000000    -1.290000000
C    -6.426000000     0.864000000    -2.652000000
C    -6.014000000    -0.394000000    -3.010000000
H    -6.032000000    -1.117000000    -2.199000000
C    -6.424000000     1.828000000    -3.648000000
H    -6.806000000     2.824000000    -3.440000000
C    -5.868000000     1.598000000    -4.933000000
H    -5.809000000     2.415000000    -5.647000000
C    -5.454000000     0.291000000    -5.290000000
H    -5.130000000     0.075000000    -6.305000000
C    -5.505000000    -0.672000000    -4.287000000
O    -4.886000000    -1.866000000    -4.387000000
C    -3.570000000    -2.110000000    -4.526000000
C    -3.144000000    -3.403000000    -4.565000000
H    -3.959000000    -4.110000000    -4.701000000
C    -1.868000000    -3.809000000    -4.523000000
O    -1.674000000    -5.143000000    -4.253000000
C    -0.383000000    -5.679000000    -4.031000000
C    -0.031000000    -5.935000000    -2.711000000
H    -0.784000000    -5.886000000    -1.929000000
C     0.534000000    -5.781000000    -5.073000000
H     0.222000000    -5.526000000    -6.083000000
C     1.773000000    -6.380000000    -4.792000000
H     2.512000000    -6.561000000    -5.568000000
C     2.123000000    -6.703000000    -3.443000000
H     3.114000000    -7.137000000    -3.345000000
C     1.274000000    -6.377000000    -2.372000000
O     1.717000000    -6.658000000    -1.129000000
C     2.357000000    -5.803000000    -0.219000000
C     2.613000000    -6.207000000     1.120000000
H     2.429000000    -7.220000000     1.469000000
C     3.272000000    -5.299000000     1.953000000
O     3.384000000    -5.617000000     3.202000000
C     3.150000000    -4.683000000     4.213000000
C     4.085000000    -4.493000000     5.193000000
H     5.045000000    -5.002000000     5.202000000
C     3.862000000    -3.412000000     6.112000000
H     4.610000000    -3.123000000     6.846000000
C     2.634000000    -2.762000000     6.095000000
H     2.466000000    -1.906000000     6.742000000
C     1.668000000    -3.100000000     5.199000000
C     1.927000000    -4.075000000     4.264000000
H     1.164000000    -4.406000000     3.564000000
C    -0.439000000    -2.474000000     0.227000000
H    -0.340000000    -3.547000000     0.085000000
C     0.513000000    -1.592000000    -0.354000000
H     1.221000000    -1.932000000    -1.106000000
C     0.514000000    -0.277000000    -0.013000000
H     1.198000000     0.478000000    -0.414000000
C    -0.425000000     0.196000000     0.849000000
H    -0.572000000     1.260000000     1.013000000
C    -1.300000000    -0.694000000     1.498000000
H    -1.952000000    -0.314000000     2.281000000
C    -1.374000000    -2.040000000     1.178000000
C    -2.171000000    -3.085000000     1.949000000
O    -2.897000000    -2.642000000     2.754000000
O    -2.114000000    -4.298000000     1.696000000
O    -2.602000000    -0.180000000    -1.072000000
H    -2.314000000    -1.076000000    -1.248000000
H    -2.280000000     0.006000000    -0.189000000
O    -4.238000000    -7.756000000    -0.056000000
H    -4.646000000    -8.537000000     0.317000000
H    -3.626000000    -8.096000000    -0.710000000
O    -0.246000000    -9.653000000     0.861000000
H    -0.386000000    -8.774000000     1.213000000
H     0.703000000    -9.721000000     0.758000000
O    -4.419000000    -5.473000000     1.723000000
H    -3.642000000    -4.914000000     1.728000000
H    -4.272000000    -6.082000000     0.999000000
O    -7.769000000    -0.970000000    -0.006000000
H    -7.053000000    -0.335000000    -0.018000000
H    -7.334000000    -1.823000000    -0.027000000
O    -4.922000000    -1.148000000     2.145000000
H    -5.519000000    -1.734000000     1.681000000
H    -4.362000000    -1.731000000     2.656000000
O    -3.914000000    -1.677000000     5.011000000
H    -3.330000000    -2.008000000     4.329000000
H    -3.888000000    -2.347000000     5.694000000
O     1.244000000    -8.050000000     3.430000000
H     0.417000000    -8.473000000     3.661000000
H     1.373000000    -7.388000000     4.109000000
O    -2.934000000    -4.807000000     4.868000000
H    -2.956000000    -4.363000000     4.020000000
H    -2.664000000    -4.127000000     5.487000000
O    -4.693000000    -6.661000000     5.900000000
H    -4.075000000    -6.031000000     5.530000000
H    -4.164000000    -7.196000000     6.492000000
O    -3.595000000    -3.287000000     7.560000000
H    -3.825000000    -3.034000000     8.454000000
H    -3.072000000    -4.082000000     7.663000000
O    -5.100000000    -0.208000000     7.237000000
H    -5.669000000    -0.583000000     6.566000000
H    -4.287000000    -0.002000000     6.775000000
O    -6.183000000    -5.740000000     3.756000000
H    -5.785000000    -6.189000000     4.501000000
H    -5.449000000    -5.547000000     3.172000000
O    -1.483000000    -7.422000000     4.361000000
H    -1.703000000    -6.552000000     4.694000000
H    -2.191000000    -7.632000000     3.752000000
O    -3.549000000    -8.476000000     2.882000000
H    -4.489000000    -8.645000000     2.822000000
H    -3.372000000    -7.854000000     2.176000000
O    -6.833000000    -0.941000000     5.048000000
H    -7.359000000    -0.746000000     4.271000000
H    -6.052000000    -1.376000000     4.705000000
O    -6.118000000    -3.214000000     0.716000000
H    -6.746000000    -3.881000000     0.438000000
H    -5.348000000    -3.710000000     0.992000000
O    -1.269000000    -6.913000000     1.366000000
H    -0.879000000    -7.012000000     2.235000000
H    -1.596000000    -6.013000000     1.351000000
O    -1.860000000    -5.380000000     7.604000000
H    -0.961000000    -5.356000000     7.931000000
H    -2.045000000    -6.311000000     7.479000000
