215
-1455.92423
C    -4.467000000     2.080000000    -0.857000000
H    -4.217000000     2.217000000    -1.906000000
C    -3.671000000     2.716000000     0.140000000
C    -4.080000000     2.712000000     1.424000000
H    -3.576000000     3.387000000     2.111000000
C    -2.351000000     3.293000000    -0.291000000
O    -2.455000000     3.806000000    -1.622000000
H    -1.544000000     2.547000000    -0.266000000
O    -1.951000000     4.407000000     0.616000000
C    -0.730000000     4.407000000     1.065000000
C    -0.419000000     3.770000000     2.239000000
H    -1.243000000     3.480000000     2.887000000
C     0.833000000     3.499000000     2.669000000
O     0.946000000     2.757000000     3.843000000
C     1.908000000     4.039000000     1.931000000
C     3.345000000     3.747000000     2.438000000
H     4.052000000     4.554000000     2.231000000
C     3.797000000     2.350000000     1.991000000
C     4.470000000     2.292000000     0.784000000
H     4.640000000     3.121000000     0.102000000
H     3.346000000     3.865000000     3.524000000
C     1.632000000     4.846000000     0.767000000
H     2.374000000     5.471000000     0.276000000
C     0.290000000     4.966000000     0.283000000
C     0.029000000     5.559000000    -1.076000000
H     0.871000000     6.200000000    -1.348000000
H    -0.866000000     6.183000000    -1.046000000
C    -0.116000000     4.437000000    -2.074000000
C     1.005000000     4.073000000    -2.757000000
H     1.897000000     4.687000000    -2.659000000
C    -1.313000000     3.692000000    -2.338000000
C    -1.382000000     2.768000000    -3.420000000
H    -2.291000000     2.250000000    -3.716000000
C    -0.196000000     2.393000000    -3.999000000
O    -0.370000000     1.315000000    -4.775000000
C     0.102000000     0.086000000    -4.170000000
C    -0.952000000    -0.997000000    -4.280000000
C    -0.612000000    -2.300000000    -3.908000000
H     0.348000000    -2.586000000    -3.487000000
C    -2.278000000    -0.795000000    -4.667000000
H    -2.595000000     0.192000000    -4.994000000
O     1.397000000    -0.241000000    -4.788000000
H     0.334000000     0.251000000    -3.107000000
C     1.015000000     3.032000000    -3.710000000
C     2.338000000     2.658000000    -4.371000000
H     2.916000000     3.576000000    -4.240000000
H     2.149000000     2.496000000    -5.435000000
C     2.924000000     1.452000000    -3.684000000
C     3.955000000     1.651000000    -2.743000000
H     4.192000000     2.692000000    -2.541000000
C     2.481000000     0.077000000    -4.023000000
C     3.201000000    -0.911000000    -3.392000000
H     2.882000000    -1.903000000    -3.701000000
C     4.230000000    -0.668000000    -2.445000000
O     4.675000000    -1.747000000    -1.702000000
C     4.108000000    -1.943000000    -0.335000000
C     3.778000000    -3.408000000    -0.094000000
C     3.662000000    -4.337000000    -1.135000000
H     3.953000000    -3.974000000    -2.117000000
C     3.401000000    -3.697000000     1.159000000
H     3.436000000    -2.986000000     1.980000000
O     4.935000000    -1.439000000     0.705000000
H     3.155000000    -1.395000000    -0.330000000
C     4.553000000     0.604000000    -2.102000000
C     5.594000000     0.925000000    -0.997000000
H     6.009000000     1.931000000    -1.088000000
H     6.295000000     0.090000000    -1.049000000
C     4.881000000     1.028000000     0.318000000
C     4.678000000    -0.152000000     1.086000000
C     3.929000000     0.004000000     2.298000000
H     3.648000000    -0.902000000     2.829000000
C     3.469000000     1.169000000     2.749000000
O     2.740000000     1.144000000     3.934000000
C     1.260000000     1.318000000     3.810000000
H     0.976000000     1.033000000     2.786000000
C     0.456000000     0.536000000     4.798000000
C    -0.841000000     0.873000000     5.132000000
H    -1.176000000     1.829000000     4.740000000
C     0.914000000    -0.748000000     5.176000000
H     1.837000000    -1.105000000     4.725000000
C     0.138000000    -1.604000000     5.931000000
O     0.497000000    -2.905000000     6.243000000
C    -1.129000000    -1.237000000     6.272000000
H    -1.809000000    -1.917000000     6.781000000
C    -1.621000000    -0.014000000     5.903000000
O    -2.880000000     0.318000000     6.342000000
C    -3.733000000     1.300000000     5.885000000
C    -4.396000000     1.130000000     4.673000000
H    -4.313000000     0.195000000     4.125000000
C    -3.912000000     2.386000000     6.721000000
H    -3.455000000     2.396000000     7.707000000
C    -4.717000000     3.382000000     6.246000000
H    -4.978000000     4.302000000     6.761000000
C    -5.366000000     3.273000000     5.031000000
H    -5.912000000     4.148000000     4.689000000
C    -5.233000000     2.135000000     4.286000000
O    -5.819000000     2.138000000     3.059000000
C    -5.262000000     2.042000000     1.831000000
C    -6.021000000     1.374000000     0.828000000
H    -6.985000000     0.899000000     0.989000000
C    -5.635000000     1.415000000    -0.470000000
O    -6.485000000     0.765000000    -1.376000000
C    -6.309000000     0.626000000    -2.757000000
C    -5.500000000    -0.404000000    -3.262000000
H    -4.921000000    -1.002000000    -2.562000000
C    -7.083000000     1.338000000    -3.685000000
H    -7.679000000     2.186000000    -3.356000000
C    -7.060000000     1.104000000    -5.091000000
H    -7.575000000     1.770000000    -5.778000000
C    -6.137000000     0.106000000    -5.542000000
H    -5.998000000    -0.136000000    -6.592000000
C    -5.305000000    -0.564000000    -4.659000000
O    -4.449000000    -1.588000000    -5.158000000
C    -3.196000000    -1.832000000    -4.747000000
C    -2.813000000    -3.133000000    -4.428000000
H    -3.568000000    -3.914000000    -4.465000000
C    -1.555000000    -3.292000000    -3.924000000
O    -1.208000000    -4.537000000    -3.524000000
C     0.033000000    -4.998000000    -3.838000000
C     0.829000000    -5.338000000    -2.772000000
H     0.459000000    -5.249000000    -1.753000000
C     0.395000000    -5.231000000    -5.191000000
H    -0.266000000    -4.968000000    -6.012000000
C     1.738000000    -5.740000000    -5.427000000
H     2.125000000    -5.932000000    -6.425000000
C     2.471000000    -6.145000000    -4.355000000
H     3.337000000    -6.784000000    -4.502000000
C     2.071000000    -6.012000000    -3.026000000
O     2.832000000    -6.465000000    -1.944000000
C     3.121000000    -5.566000000    -0.904000000
C     2.709000000    -5.823000000     0.371000000
H     2.260000000    -6.798000000     0.539000000
C     2.880000000    -4.942000000     1.419000000
O     2.460000000    -5.387000000     2.645000000
C     2.571000000    -4.697000000     3.783000000
C     3.814000000    -4.799000000     4.418000000
H     4.691000000    -5.160000000     3.887000000
C     3.974000000    -4.147000000     5.648000000
H     4.950000000    -4.152000000     6.127000000
C     2.838000000    -3.639000000     6.345000000
H     2.940000000    -3.094000000     7.280000000
C     1.614000000    -3.567000000     5.661000000
C     1.478000000    -4.197000000     4.439000000
H     0.572000000    -4.092000000     3.848000000
C    -0.406000000    -2.741000000     1.124000000
H    -0.190000000    -3.759000000     0.810000000
C     0.270000000    -1.678000000     0.490000000
H     1.086000000    -1.816000000    -0.214000000
C    -0.001000000    -0.347000000     0.786000000
H     0.475000000     0.491000000     0.336000000
C    -0.951000000    -0.061000000     1.773000000
H    -1.199000000     0.944000000     2.108000000
C    -1.687000000    -1.068000000     2.373000000
H    -2.444000000    -0.836000000     3.118000000
C    -1.385000000    -2.427000000     2.084000000
C    -2.098000000    -3.421000000     2.874000000
O    -2.732000000    -3.092000000     3.869000000
O    -2.243000000    -4.535000000     2.405000000
O    -2.418000000    -5.367000000    -0.276000000
H    -2.182000000    -4.850000000     0.495000000
H    -3.132000000    -5.930000000     0.022000000
O    -7.299000000    -0.597000000     3.131000000
H    -6.722000000    -1.140000000     3.669000000
H    -6.722000000     0.071000000     2.761000000
O    -2.515000000    -0.135000000    -0.701000000
H    -3.249000000    -0.501000000    -0.207000000
H    -1.737000000    -0.427000000    -0.226000000
O    -5.794000000    -8.007000000     3.756000000
H    -6.599000000    -7.557000000     4.014000000
H    -5.234000000    -7.315000000     3.406000000
O    -5.158000000    -2.264000000     3.983000000
H    -5.251000000    -2.337000000     4.933000000
H    -4.277000000    -2.593000000     3.803000000
O    -2.522000000    -7.726000000     1.782000000
H    -1.668000000    -7.304000000     1.873000000
H    -2.520000000    -8.416000000     2.445000000
O    -4.446000000    -1.178000000     0.872000000
H    -4.630000000    -1.052000000     1.803000000
H    -5.300000000    -1.104000000     0.447000000
O    -1.026000000    -7.455000000     5.843000000
H    -0.972000000    -6.531000000     6.087000000
H    -1.952000000    -7.677000000     5.947000000
O    -3.217000000    -3.983000000     6.403000000
H    -3.028000000    -3.707000000     5.507000000
H    -2.419000000    -4.428000000     6.690000000
O    -2.078000000    -7.325000000    -2.248000000
H    -2.153000000    -6.531000000    -1.719000000
H    -1.868000000    -7.009000000    -3.127000000
O    -5.981000000    -5.851000000     5.883000000
H    -5.696000000    -5.560000000     5.017000000
H    -6.853000000    -5.472000000     5.989000000
O    -4.960000000    -1.494000000     6.590000000
H    -4.647000000    -2.386000000     6.744000000
H    -4.162000000    -0.971000000     6.512000000
O    -4.620000000    -5.816000000     2.937000000
H    -3.843000000    -5.271000000     3.054000000
H    -4.570000000    -6.113000000     2.029000000
O    -0.748000000    -5.001000000     7.314000000
H    -0.242000000    -4.257000000     6.988000000
H    -0.447000000    -5.120000000     8.215000000
O    -6.803000000    -4.450000000     3.158000000
H    -6.105000000    -5.096000000     3.052000000
H    -6.343000000    -3.617000000     3.268000000
O    -4.483000000    -7.637000000    -0.103000000
H    -3.862000000    -7.737000000     0.618000000
H    -4.502000000    -8.496000000    -0.524000000
O    -1.954000000    -9.340000000     3.749000000
H    -1.708000000    -8.566000000     4.256000000
H    -2.269000000    -9.965000000     4.402000000
O    -4.214000000    -3.203000000    -1.238000000
H    -3.357000000    -3.630000000    -1.234000000
H    -4.261000000    -2.752000000    -0.395000000
O    -0.277000000    -6.253000000     2.413000000
H    -1.026000000    -5.658000000     2.402000000
H     0.461000000    -5.703000000     2.678000000
