215
-1441.95748
C    -4.206000000     3.109000000    -1.075000000
H    -3.955000000     2.843000000    -2.099000000
C    -3.134000000     3.564000000    -0.289000000
C    -3.395000000     3.683000000     1.137000000
H    -2.660000000     4.151000000     1.785000000
C    -1.710000000     3.815000000    -0.813000000
O    -1.714000000     3.934000000    -2.275000000
H    -1.084000000     2.931000000    -0.622000000
O    -1.076000000     4.942000000    -0.065000000
C     0.190000000     4.675000000     0.248000000
C     0.432000000     4.226000000     1.593000000
H    -0.314000000     4.099000000     2.373000000
C     1.634000000     3.814000000     2.001000000
O     1.690000000     3.078000000     3.191000000
C     2.752000000     3.856000000     1.146000000
C     4.109000000     3.303000000     1.475000000
H     4.840000000     3.718000000     0.777000000
C     4.164000000     1.843000000     1.232000000
C     4.540000000     1.371000000    -0.014000000
H     4.858000000     2.099000000    -0.756000000
H     4.509000000     3.480000000     2.475000000
C     2.583000000     4.446000000    -0.112000000
H     3.411000000     4.505000000    -0.815000000
C     1.288000000     4.824000000    -0.606000000
C     1.131000000     5.079000000    -2.105000000
H     2.158000000     5.301000000    -2.402000000
H     0.628000000     6.027000000    -2.308000000
C     0.635000000     3.954000000    -3.010000000
C     1.632000000     3.141000000    -3.613000000
H     2.690000000     3.266000000    -3.398000000
C    -0.688000000     3.496000000    -3.078000000
C    -0.976000000     2.457000000    -3.922000000
H    -1.961000000     2.004000000    -3.847000000
C    -0.036000000     1.832000000    -4.688000000
O    -0.390000000     0.593000000    -5.188000000
C    -0.307000000    -0.478000000    -4.289000000
C    -1.541000000    -1.298000000    -4.177000000
C    -1.406000000    -2.502000000    -3.496000000
H    -0.437000000    -2.713000000    -3.052000000
C    -2.853000000    -0.872000000    -4.623000000
H    -3.037000000     0.074000000    -5.125000000
O     0.801000000    -1.333000000    -4.684000000
H    -0.048000000    -0.099000000    -3.289000000
C     1.282000000     2.199000000    -4.580000000
C     2.321000000     1.280000000    -5.182000000
H     3.190000000     1.849000000    -5.519000000
H     1.825000000     0.886000000    -6.072000000
C     2.730000000     0.074000000    -4.214000000
C     3.855000000     0.194000000    -3.382000000
H     4.525000000     1.050000000    -3.420000000
C     1.996000000    -1.059000000    -3.992000000
C     2.436000000    -2.107000000    -3.211000000
H     1.841000000    -3.009000000    -3.095000000
C     3.585000000    -2.062000000    -2.474000000
O     3.957000000    -3.038000000    -1.525000000
C     3.517000000    -2.814000000    -0.102000000
C     2.979000000    -4.085000000     0.486000000
C     2.217000000    -4.946000000    -0.297000000
H     2.087000000    -4.796000000    -1.366000000
C     2.962000000    -4.272000000     1.817000000
H     3.496000000    -3.540000000     2.417000000
O     4.578000000    -2.294000000     0.676000000
H     2.670000000    -2.112000000    -0.133000000
C     4.326000000    -0.822000000    -2.531000000
C     5.349000000    -0.432000000    -1.551000000
H     5.913000000     0.369000000    -2.033000000
H     6.005000000    -1.273000000    -1.317000000
C     4.694000000    -0.024000000    -0.195000000
C     4.465000000    -0.927000000     0.798000000
C     3.980000000    -0.455000000     2.033000000
H     3.910000000    -1.185000000     2.835000000
C     3.829000000     0.955000000     2.246000000
O     3.161000000     1.212000000     3.415000000
C     1.787000000     1.640000000     3.174000000
H     1.496000000     1.165000000     2.226000000
C     0.902000000     1.033000000     4.309000000
C    -0.211000000     1.733000000     4.751000000
H    -0.395000000     2.667000000     4.228000000
C     1.245000000    -0.197000000     4.801000000
H     2.136000000    -0.741000000     4.500000000
C     0.539000000    -0.711000000     5.875000000
O     0.780000000    -1.944000000     6.434000000
C    -0.625000000    -0.020000000     6.323000000
H    -1.205000000    -0.528000000     7.090000000
C    -0.968000000     1.182000000     5.819000000
O    -2.212000000     1.772000000     6.164000000
C    -2.764000000     2.893000000     5.594000000
C    -3.483000000     2.772000000     4.414000000
H    -3.516000000     1.824000000     3.882000000
C    -2.913000000     4.026000000     6.421000000
H    -2.379000000     4.018000000     7.367000000
C    -3.679000000     5.077000000     5.956000000
H    -3.729000000     6.021000000     6.493000000
C    -4.337000000     4.980000000     4.728000000
H    -4.935000000     5.769000000     4.280000000
C    -4.294000000     3.780000000     4.066000000
O    -5.025000000     3.615000000     2.932000000
C    -4.639000000     3.338000000     1.634000000
C    -5.626000000     2.824000000     0.855000000
H    -6.530000000     2.452000000     1.330000000
C    -5.375000000     2.651000000    -0.482000000
O    -6.370000000     2.030000000    -1.243000000
C    -6.285000000     1.663000000    -2.542000000
C    -5.893000000     0.384000000    -2.873000000
H    -5.423000000    -0.183000000    -2.074000000
C    -6.820000000     2.465000000    -3.550000000
H    -7.233000000     3.446000000    -3.329000000
C    -6.649000000     2.119000000    -4.894000000
H    -6.908000000     2.710000000    -5.768000000
C    -6.189000000     0.824000000    -5.188000000
H    -6.006000000     0.498000000    -6.209000000
C    -5.819000000    -0.084000000    -4.209000000
O    -5.271000000    -1.336000000    -4.553000000
C    -3.957000000    -1.665000000    -4.278000000
C    -3.812000000    -2.924000000    -3.638000000
H    -4.740000000    -3.475000000    -3.514000000
C    -2.547000000    -3.326000000    -3.268000000
O    -2.489000000    -4.454000000    -2.558000000
C    -1.521000000    -5.434000000    -2.674000000
C    -0.631000000    -5.677000000    -1.649000000
H    -0.723000000    -5.042000000    -0.772000000
C    -1.488000000    -6.198000000    -3.866000000
H    -2.132000000    -5.965000000    -4.710000000
C    -0.680000000    -7.336000000    -3.861000000
H    -0.595000000    -7.977000000    -4.735000000
C     0.191000000    -7.657000000    -2.785000000
H     0.908000000    -8.464000000    -2.910000000
C     0.241000000    -6.744000000    -1.695000000
O     0.987000000    -6.920000000    -0.573000000
C     1.687000000    -6.086000000     0.239000000
C     1.711000000    -6.262000000     1.624000000
H     1.401000000    -7.213000000     2.049000000
C     2.340000000    -5.378000000     2.412000000
O     2.393000000    -5.594000000     3.756000000
C     2.635000000    -4.696000000     4.751000000
C     3.921000000    -4.537000000     5.302000000
H     4.712000000    -5.134000000     4.856000000
C     4.113000000    -3.583000000     6.327000000
H     5.096000000    -3.525000000     6.787000000
C     3.120000000    -2.668000000     6.630000000
H     3.244000000    -1.955000000     7.442000000
C     1.850000000    -2.795000000     6.090000000
C     1.586000000    -3.943000000     5.285000000
H     0.546000000    -4.107000000     5.014000000
C    -0.300000000    -1.774000000     0.536000000
H    -0.111000000    -2.776000000     0.159000000
C     0.337000000    -0.651000000    -0.037000000
H     1.086000000    -0.808000000    -0.809000000
C    -0.088000000     0.644000000     0.315000000
H     0.428000000     1.515000000    -0.134000000
C    -0.991000000     0.834000000     1.276000000
H    -1.182000000     1.837000000     1.648000000
C    -1.581000000    -0.296000000     1.851000000
H    -2.369000000    -0.223000000     2.597000000
C    -1.328000000    -1.556000000     1.442000000
C    -2.184000000    -2.733000000     1.853000000
O    -3.338000000    -2.591000000     2.232000000
O    -1.824000000    -3.859000000     1.601000000
O    -7.310000000    -5.868000000     3.022000000
H    -6.464000000    -5.609000000     2.658000000
H    -7.951000000    -5.362000000     2.523000000
O    -7.225000000    -3.431000000     4.875000000
H    -7.609000000    -2.588000000     4.630000000
H    -7.313000000    -3.971000000     4.089000000
O    -2.891000000    -0.153000000    -0.858000000
H    -3.375000000    -0.773000000    -0.312000000
H    -2.018000000    -0.122000000    -0.469000000
O    -3.861000000    -7.401000000     1.430000000
H    -4.389000000    -6.627000000     1.625000000
H    -2.999000000    -7.200000000     1.793000000
O    -4.986000000    -0.678000000     3.310000000
H    -5.111000000    -0.892000000     4.234000000
H    -4.335000000    -1.310000000     3.003000000
O    -8.202000000    -3.482000000     1.764000000
H    -8.664000000    -3.574000000     0.931000000
H    -8.099000000    -2.537000000     1.878000000
O    -6.996000000    -0.798000000     1.415000000
H    -6.457000000    -0.728000000     0.627000000
H    -6.436000000    -1.246000000     2.049000000
O    -4.848000000    -2.058000000     5.751000000
H    -5.549000000    -2.710000000     5.717000000
H    -4.215000000    -2.419000000     6.372000000
O    -2.095000000    -4.392000000     5.857000000
H    -2.664000000    -3.834000000     6.386000000
H    -1.403000000    -4.667000000     6.458000000
O    -3.719000000    -4.887000000    -0.135000000
H    -3.069000000    -4.526000000     0.468000000
H    -3.201000000    -5.317000000    -0.815000000
O     0.245000000    -7.657000000     4.214000000
H     0.278000000    -6.765000000     4.560000000
H    -0.242000000    -7.578000000     3.394000000
O    -6.601000000     0.407000000     5.980000000
H    -7.293000000    -0.199000000     5.717000000
H    -5.788000000    -0.068000000     5.809000000
O    -4.592000000    -5.204000000     2.958000000
H    -4.301000000    -4.326000000     2.710000000
H    -3.784000000    -5.674000000     3.164000000
O    -2.078000000    -8.745000000     4.809000000
H    -2.464000000    -7.911000000     4.541000000
H    -1.134000000    -8.603000000     4.744000000
O    -6.109000000    -5.337000000    -1.206000000
H    -5.230000000    -5.225000000    -0.845000000
H    -6.443000000    -4.445000000    -1.305000000
O    -4.104000000    -6.347000000     5.530000000
H    -4.603000000    -5.938000000     4.823000000
H    -3.326000000    -5.797000000     5.624000000
O    -4.814000000    -2.080000000     0.003000000
H    -4.492000000    -2.178000000     0.900000000
H    -4.440000000    -2.824000000    -0.468000000
O    -0.805000000    -8.452000000     1.369000000
H    -0.413000000    -8.306000000     0.508000000
H    -1.536000000    -9.047000000     1.202000000
O    -1.728000000    -5.899000000     3.369000000
H    -1.808000000    -5.377000000     4.167000000
H    -1.642000000    -5.254000000     2.667000000
