215
-1465.32413
C    -4.339000000     3.087000000    -0.490000000
H    -4.376000000     3.535000000    -1.480000000
C    -3.247000000     3.267000000     0.381000000
C    -3.411000000     2.882000000     1.733000000
H    -2.587000000     2.990000000     2.433000000
C    -1.810000000     3.687000000    -0.067000000
O    -1.910000000     4.236000000    -1.341000000
H    -1.136000000     2.821000000    -0.153000000
O    -1.261000000     4.732000000     0.788000000
C     0.098000000     4.629000000     0.977000000
C     0.579000000     4.262000000     2.236000000
H    -0.133000000     4.029000000     3.023000000
C     1.877000000     3.918000000     2.483000000
O     2.162000000     3.190000000     3.667000000
C     2.788000000     3.959000000     1.489000000
C     4.171000000     3.446000000     1.720000000
H     4.832000000     3.961000000     1.019000000
C     4.428000000     1.931000000     1.365000000
C     4.874000000     1.589000000     0.103000000
H     5.177000000     2.354000000    -0.607000000
H     4.600000000     3.731000000     2.682000000
C     2.430000000     4.503000000     0.227000000
H     3.156000000     4.614000000    -0.574000000
C     1.053000000     4.762000000    -0.012000000
C     0.703000000     5.235000000    -1.374000000
H     1.513000000     5.801000000    -1.839000000
H    -0.132000000     5.939000000    -1.372000000
C     0.182000000     4.099000000    -2.304000000
C     1.077000000     3.565000000    -3.199000000
H     2.035000000     4.078000000    -3.228000000
C    -1.100000000     3.682000000    -2.255000000
C    -1.561000000     2.599000000    -3.068000000
H    -2.627000000     2.389000000    -3.065000000
C    -0.652000000     2.084000000    -4.017000000
O    -0.979000000     0.973000000    -4.757000000
C    -0.608000000    -0.289000000    -4.156000000
C    -1.780000000    -1.241000000    -4.231000000
C    -1.573000000    -2.608000000    -4.262000000
H    -0.553000000    -2.949000000    -4.419000000
C    -3.054000000    -0.698000000    -4.114000000
H    -3.210000000     0.376000000    -4.054000000
O     0.508000000    -0.730000000    -4.974000000
H    -0.227000000    -0.134000000    -3.136000000
C     0.676000000     2.576000000    -4.106000000
C     1.722000000     1.854000000    -4.936000000
H     2.513000000     2.525000000    -5.278000000
H     1.217000000     1.540000000    -5.852000000
C     2.330000000     0.677000000    -4.165000000
C     3.399000000     0.868000000    -3.364000000
H     3.814000000     1.872000000    -3.354000000
C     1.809000000    -0.581000000    -4.380000000
C     2.265000000    -1.657000000    -3.643000000
H     1.796000000    -2.635000000    -3.713000000
C     3.315000000    -1.447000000    -2.742000000
O     3.644000000    -2.521000000    -1.958000000
C     3.413000000    -2.526000000    -0.557000000
C     2.874000000    -3.889000000    -0.070000000
C     2.132000000    -4.738000000    -0.954000000
H     2.050000000    -4.431000000    -1.993000000
C     2.841000000    -4.131000000     1.297000000
H     3.332000000    -3.478000000     2.014000000
O     4.644000000    -2.148000000     0.113000000
H     2.630000000    -1.787000000    -0.332000000
C     3.960000000    -0.203000000    -2.613000000
C     5.221000000    -0.040000000    -1.719000000
H     5.831000000     0.789000000    -2.082000000
H     5.831000000    -0.940000000    -1.827000000
C     4.865000000     0.267000000    -0.322000000
C     4.584000000    -0.793000000     0.564000000
C     4.327000000    -0.411000000     1.894000000
H     4.205000000    -1.178000000     2.654000000
C     4.125000000     0.910000000     2.247000000
O     3.661000000     1.283000000     3.480000000
C     2.280000000     1.716000000     3.529000000
H     1.787000000     1.420000000     2.591000000
C     1.512000000     0.927000000     4.678000000
C     0.426000000     1.533000000     5.212000000
H     0.120000000     2.523000000     4.884000000
C     1.854000000    -0.361000000     5.115000000
H     2.750000000    -0.853000000     4.747000000
C     1.109000000    -1.001000000     6.107000000
O     1.150000000    -2.425000000     6.250000000
C    -0.021000000    -0.322000000     6.678000000
H    -0.437000000    -0.873000000     7.517000000
C    -0.317000000     0.947000000     6.237000000
O    -1.333000000     1.707000000     6.798000000
C    -2.388000000     2.341000000     6.088000000
C    -3.055000000     1.681000000     5.026000000
H    -2.773000000     0.718000000     4.607000000
C    -2.699000000     3.624000000     6.475000000
H    -2.069000000     4.193000000     7.154000000
C    -3.705000000     4.301000000     5.854000000
H    -3.875000000     5.368000000     5.973000000
C    -4.443000000     3.670000000     4.861000000
H    -5.163000000     4.166000000     4.215000000
C    -4.130000000     2.367000000     4.494000000
O    -4.802000000     1.812000000     3.427000000
C    -4.643000000     2.332000000     2.150000000
C    -5.712000000     2.094000000     1.328000000
H    -6.608000000     1.597000000     1.690000000
C    -5.568000000     2.570000000     0.000000000
O    -6.722000000     2.441000000    -0.866000000
C    -6.576000000     1.859000000    -2.117000000
C    -6.084000000     0.569000000    -2.190000000
H    -5.911000000    -0.023000000    -1.295000000
C    -6.881000000     2.649000000    -3.231000000
H    -7.340000000     3.628000000    -3.119000000
C    -6.913000000     2.027000000    -4.484000000
H    -7.433000000     2.577000000    -5.264000000
C    -6.290000000     0.783000000    -4.591000000
H    -6.327000000     0.243000000    -5.534000000
C    -5.859000000     0.111000000    -3.509000000
O    -5.348000000    -1.239000000    -3.591000000
C    -4.092000000    -1.609000000    -3.927000000
C    -3.915000000    -2.935000000    -4.212000000
H    -4.798000000    -3.562000000    -4.110000000
C    -2.639000000    -3.445000000    -4.326000000
O    -2.469000000    -4.836000000    -4.488000000
C    -1.279000000    -5.479000000    -4.170000000
C    -0.879000000    -5.693000000    -2.819000000
H    -1.462000000    -5.369000000    -1.961000000
C    -0.610000000    -6.049000000    -5.222000000
H    -0.927000000    -5.958000000    -6.258000000
C     0.491000000    -6.798000000    -5.030000000
H     0.923000000    -7.308000000    -5.888000000
C     0.979000000    -6.899000000    -3.755000000
H     1.764000000    -7.641000000    -3.630000000
C     0.316000000    -6.436000000    -2.619000000
O     0.727000000    -6.736000000    -1.313000000
C     1.500000000    -5.906000000    -0.506000000
C     1.702000000    -6.201000000     0.821000000
H     1.336000000    -7.093000000     1.322000000
C     2.270000000    -5.304000000     1.682000000
O     2.351000000    -5.679000000     2.966000000
C     2.689000000    -4.828000000     3.998000000
C     3.954000000    -4.884000000     4.535000000
H     4.609000000    -5.686000000     4.203000000
C     4.316000000    -4.021000000     5.573000000
H     5.317000000    -3.894000000     5.977000000
C     3.301000000    -3.211000000     6.054000000
H     3.580000000    -2.557000000     6.876000000
C     1.980000000    -3.235000000     5.597000000
C     1.696000000    -4.036000000     4.537000000
H     0.703000000    -4.004000000     4.096000000
C    -0.399000000    -1.373000000    -0.078000000
H    -0.096000000    -1.997000000    -0.915000000
C     0.236000000    -0.136000000    -0.128000000
H     0.847000000     0.198000000    -0.963000000
C    -0.024000000     0.774000000     0.865000000
H     0.492000000     1.687000000     0.880000000
C    -0.928000000     0.462000000     1.948000000
H    -1.131000000     1.276000000     2.639000000
C    -1.472000000    -0.797000000     1.936000000
H    -2.014000000    -1.203000000     2.786000000
C    -1.290000000    -1.699000000     0.924000000
C    -1.902000000    -3.107000000     1.010000000
O    -2.310000000    -3.543000000     2.085000000
O    -2.254000000    -3.657000000    -0.028000000
O    -6.645000000    -5.665000000     2.799000000
H    -5.797000000    -5.241000000     2.667000000
H    -7.267000000    -5.107000000     2.332000000
O    -3.033000000     0.272000000    -0.857000000
H    -2.232000000     0.703000000    -0.559000000
H    -3.717000000     0.931000000    -0.738000000
O    -4.519000000    -2.199000000     3.521000000
H    -4.993000000    -2.810000000     4.086000000
H    -3.723000000    -2.670000000     3.275000000
O    -7.743000000    -4.015000000     0.788000000
H    -7.733000000    -3.849000000    -0.154000000
H    -7.450000000    -3.192000000     1.180000000
O    -6.499000000    -1.559000000     1.606000000
H    -6.023000000    -1.770000000     0.803000000
H    -5.869000000    -1.722000000     2.308000000
O    -1.666000000    -5.865000000     3.666000000
H    -1.921000000    -5.036000000     3.262000000
H    -1.780000000    -5.719000000     4.605000000
O    -4.404000000    -8.991000000     3.616000000
H    -4.344000000    -8.588000000     2.750000000
H    -5.257000000    -8.712000000     3.951000000
O    -3.906000000    -5.474000000    -1.236000000
H    -3.247000000    -4.798000000    -1.079000000
H    -3.765000000    -5.740000000    -2.144000000
O     1.070000000    -7.859000000     4.809000000
H     0.791000000    -6.944000000     4.832000000
H     0.693000000    -8.204000000     4.000000000
O    -6.661000000    -0.285000000     4.256000000
H    -7.397000000    -0.897000000     4.256000000
H    -6.202000000    -0.463000000     3.435000000
O    -6.615000000    -3.440000000    -2.251000000
H    -7.231000000    -3.125000000    -2.913000000
H    -6.061000000    -2.682000000    -2.059000000
O    -4.571000000    -4.787000000     1.301000000
H    -3.649000000    -4.560000000     1.421000000
H    -4.681000000    -4.852000000     0.353000000
O    -1.019000000    -8.790000000     3.036000000
H    -1.730000000    -8.225000000     3.339000000
H    -0.877000000    -8.530000000     2.126000000
O    -6.465000000    -6.145000000    -2.350000000
H    -6.058000000    -6.193000000    -1.485000000
H    -6.409000000    -5.220000000    -2.591000000
O    -4.071000000    -7.591000000     1.276000000
H    -3.173000000    -7.571000000     0.945000000
H    -4.380000000    -6.690000000     1.183000000
O    -4.461000000    -2.015000000    -0.299000000
H    -3.890000000    -1.253000000    -0.390000000
H    -3.900000000    -2.762000000    -0.509000000
O    -1.425000000    -6.582000000     1.123000000
H    -1.467000000    -6.404000000     2.063000000
H    -1.277000000    -5.725000000     0.723000000
O    -2.752000000    -3.079000000     6.777000000
H    -3.117000000    -2.209000000     6.617000000
H    -2.529000000    -3.078000000     7.708000000
O    -1.080000000    -5.302000000     6.578000000
H    -0.290000000    -5.188000000     7.107000000
H    -1.345000000    -4.411000000     6.349000000
