215
-1454.68565
C    -4.149000000     2.977000000     0.897000000
H    -4.265000000     3.488000000    -0.056000000
C    -2.919000000     3.018000000     1.645000000
C    -2.849000000     2.294000000     2.809000000
H    -1.877000000     2.211000000     3.290000000
C    -1.740000000     3.607000000     0.958000000
O    -2.026000000     4.555000000    -0.083000000
H    -1.255000000     2.703000000     0.561000000
O    -0.854000000     4.330000000     1.949000000
C     0.443000000     4.051000000     1.910000000
C     0.998000000     3.238000000     2.917000000
H     0.424000000     2.835000000     3.748000000
C     2.324000000     2.891000000     2.836000000
O     2.857000000     1.960000000     3.676000000
C     3.170000000     3.373000000     1.799000000
C     4.601000000     2.959000000     1.598000000
H     5.100000000     3.708000000     0.979000000
C     4.716000000     1.594000000     0.852000000
C     4.796000000     1.526000000    -0.540000000
H     4.719000000     2.387000000    -1.200000000
H     5.150000000     2.919000000     2.540000000
C     2.558000000     4.182000000     0.843000000
H     3.155000000     4.662000000     0.072000000
C     1.230000000     4.518000000     0.890000000
C     0.706000000     5.476000000    -0.145000000
H     1.486000000     6.128000000    -0.544000000
H     0.073000000     6.269000000     0.259000000
C     0.049000000     4.732000000    -1.315000000
C     0.789000000     4.330000000    -2.407000000
H     1.818000000     4.668000000    -2.499000000
C    -1.308000000     4.320000000    -1.173000000
C    -1.899000000     3.415000000    -2.112000000
H    -2.959000000     3.179000000    -2.071000000
C    -1.112000000     2.983000000    -3.194000000
O    -1.655000000     2.166000000    -4.117000000
C    -1.370000000     0.763000000    -3.902000000
C    -2.601000000    -0.049000000    -4.002000000
C    -2.451000000    -1.424000000    -4.287000000
H    -1.546000000    -1.857000000    -4.706000000
C    -3.844000000     0.414000000    -3.565000000
H    -4.074000000     1.473000000    -3.477000000
O    -0.299000000     0.246000000    -4.815000000
H    -1.031000000     0.610000000    -2.867000000
C     0.229000000     3.442000000    -3.377000000
C     0.998000000     2.893000000    -4.532000000
H     1.812000000     3.548000000    -4.851000000
H     0.338000000     2.695000000    -5.380000000
C     1.618000000     1.583000000    -4.132000000
C     2.904000000     1.538000000    -3.635000000
H     3.413000000     2.448000000    -3.328000000
C     0.974000000     0.342000000    -4.361000000
C     1.605000000    -0.830000000    -4.025000000
H     1.106000000    -1.788000000    -4.149000000
C     2.838000000    -0.864000000    -3.483000000
O     3.345000000    -2.023000000    -3.071000000
C     3.031000000    -2.260000000    -1.721000000
C     2.333000000    -3.601000000    -1.418000000
C     1.644000000    -4.333000000    -2.416000000
H     1.658000000    -3.800000000    -3.363000000
C     2.572000000    -4.216000000    -0.184000000
H     3.145000000    -3.668000000     0.560000000
O     4.318000000    -2.151000000    -1.073000000
H     2.343000000    -1.488000000    -1.346000000
C     3.477000000     0.324000000    -3.240000000
C     4.900000000     0.355000000    -2.716000000
H     5.354000000     1.327000000    -2.924000000
H     5.461000000    -0.508000000    -3.080000000
C     4.766000000     0.256000000    -1.186000000
C     4.680000000    -0.960000000    -0.430000000
C     4.560000000    -0.894000000     0.938000000
H     4.310000000    -1.857000000     1.376000000
C     4.511000000     0.386000000     1.545000000
O     4.235000000     0.368000000     2.868000000
C     2.890000000     0.625000000     3.289000000
H     2.250000000     0.376000000     2.430000000
C     2.445000000    -0.261000000     4.526000000
C     1.357000000     0.046000000     5.298000000
H     0.953000000     1.044000000     5.144000000
C     2.889000000    -1.559000000     4.578000000
H     3.657000000    -1.880000000     3.879000000
C     2.393000000    -2.466000000     5.542000000
O     2.816000000    -3.800000000     5.568000000
C     1.363000000    -2.126000000     6.468000000
H     0.838000000    -2.882000000     7.047000000
C     0.842000000    -0.800000000     6.314000000
O    -0.226000000    -0.511000000     7.122000000
C    -1.144000000     0.470000000     6.728000000
C    -2.109000000     0.264000000     5.728000000
H    -2.064000000    -0.660000000     5.156000000
C    -1.215000000     1.641000000     7.513000000
H    -0.536000000     1.834000000     8.340000000
C    -2.209000000     2.584000000     7.229000000
H    -2.326000000     3.512000000     7.783000000
C    -3.135000000     2.410000000     6.212000000
H    -3.831000000     3.202000000     5.949000000
C    -3.123000000     1.218000000     5.459000000
O    -3.932000000     0.937000000     4.439000000
C    -4.009000000     1.695000000     3.329000000
C    -5.212000000     1.766000000     2.608000000
H    -6.162000000     1.432000000     3.016000000
C    -5.278000000     2.398000000     1.373000000
O    -6.481000000     2.742000000     0.797000000
C    -6.807000000     2.538000000    -0.506000000
C    -6.350000000     1.381000000    -1.106000000
H    -5.699000000     0.720000000    -0.540000000
C    -7.604000000     3.370000000    -1.211000000
H    -8.099000000     4.197000000    -0.708000000
C    -7.814000000     3.227000000    -2.574000000
H    -8.346000000     4.048000000    -3.048000000
C    -7.365000000     2.070000000    -3.239000000
H    -7.626000000     1.911000000    -4.283000000
C    -6.612000000     1.114000000    -2.494000000
O    -6.206000000    -0.034000000    -3.132000000
C    -4.966000000    -0.447000000    -3.490000000
C    -4.807000000    -1.767000000    -3.888000000
H    -5.639000000    -2.449000000    -4.045000000
C    -3.578000000    -2.204000000    -4.236000000
O    -3.485000000    -3.571000000    -4.446000000
C    -2.344000000    -4.304000000    -4.750000000
C    -1.673000000    -4.948000000    -3.714000000
H    -2.080000000    -4.869000000    -2.709000000
C    -1.912000000    -4.389000000    -6.062000000
H    -2.442000000    -3.837000000    -6.834000000
C    -0.657000000    -4.946000000    -6.363000000
H    -0.226000000    -4.906000000    -7.360000000
C     0.040000000    -5.635000000    -5.316000000
H     0.958000000    -6.156000000    -5.578000000
C    -0.421000000    -5.613000000    -4.023000000
O     0.319000000    -6.224000000    -2.979000000
C     1.048000000    -5.511000000    -2.043000000
C     1.216000000    -6.065000000    -0.770000000
H     0.792000000    -7.010000000    -0.439000000
C     2.000000000    -5.435000000     0.185000000
O     2.025000000    -5.946000000     1.514000000
C     2.948000000    -5.627000000     2.488000000
C     4.305000000    -5.854000000     2.303000000
H     4.757000000    -6.436000000     1.504000000
C     5.215000000    -5.330000000     3.218000000
H     6.267000000    -5.277000000     2.950000000
C     4.719000000    -4.646000000     4.324000000
H     5.478000000    -4.341000000     5.040000000
C     3.389000000    -4.462000000     4.538000000
C     2.554000000    -4.871000000     3.514000000
H     1.486000000    -4.760000000     3.685000000
C    -0.273000000    -2.273000000     0.032000000
H    -0.234000000    -3.151000000    -0.608000000
C    -0.019000000    -0.977000000    -0.483000000
H     0.385000000    -0.918000000    -1.490000000
C    -0.145000000     0.118000000     0.307000000
H     0.245000000     1.100000000    -0.041000000
C    -0.612000000    -0.020000000     1.614000000
H    -0.517000000     0.826000000     2.290000000
C    -0.884000000    -1.254000000     2.134000000
H    -1.217000000    -1.325000000     3.166000000
C    -0.730000000    -2.423000000     1.358000000
C    -1.265000000    -3.802000000     1.821000000
O    -1.433000000    -4.044000000     3.018000000
O    -1.606000000    -4.591000000     0.993000000
O    -0.782000000    -4.405000000     5.544000000
H    -0.849000000    -4.177000000     4.616000000
H     0.027000000    -4.913000000     5.607000000
O     0.484000000    -8.516000000     4.206000000
H    -0.161000000    -8.051000000     3.673000000
H     0.764000000    -7.874000000     4.858000000
O    -3.179000000    -1.002000000     0.328000000
H    -2.702000000    -0.444000000     0.942000000
H    -2.711000000    -0.901000000    -0.501000000
O    -5.369000000    -4.990000000    -2.208000000
H    -4.980000000    -4.500000000    -1.484000000
H    -6.044000000    -4.408000000    -2.557000000
O    -6.128000000    -0.920000000     4.996000000
H    -5.663000000    -0.237000000     4.513000000
H    -5.646000000    -1.724000000     4.799000000
O    -4.325000000    -2.675000000     3.953000000
H    -3.747000000    -2.863000000     4.693000000
H    -4.078000000    -3.317000000     3.287000000
O     2.121000000    -8.671000000     1.192000000
H     2.093000000    -7.744000000     1.429000000
H     3.020000000    -8.817000000     0.899000000
O    -4.653000000    -7.035000000     4.833000000
H    -4.363000000    -7.251000000     3.946000000
H    -5.567000000    -7.318000000     4.861000000
O     0.961000000    -6.549000000     6.268000000
H     0.809000000    -7.231000000     6.922000000
H     1.704000000    -6.052000000     6.611000000
O    -6.003000000    -4.333000000     1.337000000
H    -5.351000000    -3.894000000     0.791000000
H    -6.370000000    -5.013000000     0.771000000
O    -4.462000000    -7.588000000     2.196000000
H    -4.386000000    -7.916000000     1.300000000
H    -5.113000000    -6.889000000     2.141000000
O    -2.374000000    -7.248000000     6.356000000
H    -3.073000000    -7.188000000     5.705000000
H    -1.730000000    -6.597000000     6.078000000
O    -5.718000000    -1.431000000     1.897000000
H    -4.853000000    -1.254000000     1.528000000
H    -5.552000000    -2.046000000     2.612000000
O    -1.822000000    -6.817000000    -0.572000000
H    -1.768000000    -6.077000000     0.032000000
H    -1.250000000    -7.482000000    -0.189000000
O    -3.829000000    -3.588000000    -0.095000000
H    -2.998000000    -4.049000000     0.025000000
H    -3.621000000    -2.670000000     0.082000000
O    -2.846000000    -4.038000000     7.348000000
H    -2.161000000    -4.062000000     6.679000000
H    -2.462000000    -4.487000000     8.100000000
O    -1.512000000    -6.808000000     2.970000000
H    -1.349000000    -5.875000000     2.832000000
H    -2.452000000    -6.912000000     2.820000000
O    -0.376000000    -9.035000000     0.315000000
H    -0.846000000    -9.588000000     0.939000000
H     0.544000000    -9.115000000     0.570000000
O    -4.543000000    -7.283000000    -0.846000000
H    -4.657000000    -6.597000000    -1.504000000
H    -3.594000000    -7.389000000    -0.772000000
