215
-1451.10349
C    -4.077000000     4.034000000     0.828000000
H    -4.156000000     4.449000000    -0.174000000
C    -2.857000000     3.994000000     1.560000000
C    -2.916000000     3.345000000     2.795000000
H    -2.005000000     3.482000000     3.372000000
C    -1.597000000     4.290000000     0.836000000
O    -1.765000000     5.064000000    -0.409000000
H    -1.204000000     3.277000000     0.662000000
O    -0.746000000     5.028000000     1.710000000
C     0.608000000     4.610000000     1.729000000
C     0.995000000     3.737000000     2.729000000
H     0.332000000     3.498000000     3.557000000
C     2.255000000     3.090000000     2.702000000
O     2.475000000     2.054000000     3.652000000
C     3.214000000     3.434000000     1.689000000
C     4.496000000     2.664000000     1.658000000
H     5.214000000     3.332000000     1.177000000
C     4.478000000     1.271000000     1.000000000
C     4.768000000     1.197000000    -0.343000000
H     5.026000000     2.120000000    -0.855000000
H     4.872000000     2.562000000     2.678000000
C     2.823000000     4.349000000     0.707000000
H     3.467000000     4.563000000    -0.142000000
C     1.531000000     4.901000000     0.696000000
C     1.105000000     5.662000000    -0.556000000
H     2.022000000     6.093000000    -0.963000000
H     0.374000000     6.428000000    -0.288000000
C     0.310000000     4.815000000    -1.563000000
C     1.041000000     4.097000000    -2.534000000
H     2.098000000     4.331000000    -2.634000000
C    -1.054000000     4.654000000    -1.503000000
C    -1.711000000     3.836000000    -2.409000000
H    -2.766000000     3.589000000    -2.323000000
C    -0.967000000     3.062000000    -3.352000000
O    -1.654000000     2.180000000    -4.175000000
C    -1.234000000     0.804000000    -3.947000000
C    -2.361000000    -0.172000000    -3.930000000
C    -2.219000000    -1.423000000    -4.542000000
H    -1.325000000    -1.741000000    -5.071000000
C    -3.526000000     0.120000000    -3.205000000
H    -3.550000000     1.120000000    -2.779000000
O    -0.227000000     0.308000000    -4.874000000
H    -0.912000000     0.800000000    -2.895000000
C     0.404000000     3.241000000    -3.447000000
C     1.228000000     2.672000000    -4.628000000
H     2.111000000     3.285000000    -4.823000000
H     0.708000000     2.762000000    -5.583000000
C     1.809000000     1.338000000    -4.194000000
C     2.991000000     1.255000000    -3.500000000
H     3.514000000     2.170000000    -3.234000000
C     1.045000000     0.214000000    -4.431000000
C     1.513000000    -1.053000000    -4.116000000
H     0.899000000    -1.948000000    -4.163000000
C     2.773000000    -1.181000000    -3.502000000
O     3.108000000    -2.411000000    -2.952000000
C     2.827000000    -2.654000000    -1.512000000
C     2.414000000    -4.081000000    -1.283000000
C     1.483000000    -4.711000000    -2.149000000
H     1.104000000    -4.133000000    -2.988000000
C     2.813000000    -4.823000000    -0.154000000
H     3.478000000    -4.346000000     0.562000000
O     4.108000000    -2.350000000    -0.862000000
H     2.026000000    -1.975000000    -1.184000000
C     3.499000000     0.006000000    -3.150000000
C     4.906000000    -0.114000000    -2.519000000
H     5.482000000     0.760000000    -2.830000000
H     5.507000000    -0.980000000    -2.805000000
C     4.775000000    -0.044000000    -0.993000000
C     4.368000000    -1.137000000    -0.258000000
C     4.295000000    -1.123000000     1.129000000
H     4.075000000    -2.018000000     1.706000000
C     4.253000000     0.130000000     1.691000000
O     3.773000000     0.159000000     2.988000000
C     2.430000000     0.676000000     3.245000000
H     1.916000000     0.661000000     2.273000000
C     1.739000000    -0.231000000     4.243000000
C     0.773000000     0.255000000     5.097000000
H     0.731000000     1.318000000     5.320000000
C     1.936000000    -1.585000000     4.056000000
H     2.666000000    -1.955000000     3.340000000
C     1.267000000    -2.440000000     4.952000000
O     1.646000000    -3.812000000     5.014000000
C     0.279000000    -2.040000000     5.810000000
H    -0.128000000    -2.702000000     6.570000000
C     0.067000000    -0.696000000     5.883000000
O    -0.797000000    -0.170000000     6.826000000
C    -1.483000000     0.993000000     6.592000000
C    -2.556000000     0.994000000     5.682000000
H    -2.826000000     0.143000000     5.062000000
C    -0.930000000     2.160000000     7.032000000
H     0.025000000     2.048000000     7.539000000
C    -1.485000000     3.421000000     6.795000000
H    -1.053000000     4.310000000     7.248000000
C    -2.747000000     3.371000000     6.106000000
H    -3.146000000     4.359000000     5.889000000
C    -3.229000000     2.196000000     5.503000000
O    -4.268000000     2.263000000     4.629000000
C    -4.154000000     2.907000000     3.390000000
C    -5.276000000     2.837000000     2.564000000
H    -6.154000000     2.349000000     2.979000000
C    -5.214000000     3.319000000     1.269000000
O    -6.347000000     3.396000000     0.455000000
C    -6.518000000     2.631000000    -0.655000000
C    -5.877000000     1.441000000    -0.901000000
H    -5.007000000     1.096000000    -0.350000000
C    -7.640000000     2.927000000    -1.428000000
H    -8.220000000     3.817000000    -1.201000000
C    -8.174000000     2.059000000    -2.351000000
H    -9.028000000     2.396000000    -2.934000000
C    -7.512000000     0.893000000    -2.579000000
H    -7.914000000     0.250000000    -3.357000000
C    -6.362000000     0.544000000    -1.875000000
O    -5.659000000    -0.652000000    -2.127000000
C    -4.497000000    -0.855000000    -2.955000000
C    -4.339000000    -2.093000000    -3.489000000
H    -5.042000000    -2.882000000    -3.233000000
C    -3.183000000    -2.371000000    -4.324000000
O    -3.097000000    -3.567000000    -4.907000000
C    -1.970000000    -4.391000000    -4.906000000
C    -1.578000000    -5.107000000    -3.773000000
H    -2.150000000    -5.032000000    -2.852000000
C    -1.232000000    -4.568000000    -6.106000000
H    -1.490000000    -3.941000000    -6.956000000
C    -0.101000000    -5.350000000    -6.157000000
H     0.404000000    -5.428000000    -7.117000000
C     0.393000000    -6.014000000    -5.035000000
H     1.365000000    -6.501000000    -5.052000000
C    -0.394000000    -5.919000000    -3.863000000
O     0.039000000    -6.582000000    -2.747000000
C     0.955000000    -5.984000000    -1.850000000
C     1.337000000    -6.668000000    -0.680000000
H     0.754000000    -7.524000000    -0.348000000
C     2.206000000    -6.047000000     0.199000000
O     2.597000000    -6.721000000     1.343000000
C     3.078000000    -6.002000000     2.440000000
C     4.420000000    -5.935000000     2.813000000
H     5.122000000    -6.648000000     2.389000000
C     4.824000000    -5.142000000     3.885000000
H     5.863000000    -5.033000000     4.187000000
C     3.899000000    -4.422000000     4.600000000
H     4.221000000    -3.989000000     5.544000000
C     2.579000000    -4.440000000     4.230000000
C     2.156000000    -5.212000000     3.145000000
H     1.094000000    -5.215000000     2.913000000
C    -0.970000000    -2.525000000    -0.330000000
H    -1.088000000    -3.279000000    -1.103000000
C    -0.411000000    -1.302000000    -0.731000000
H    -0.185000000    -1.231000000    -1.792000000
C    -0.218000000    -0.266000000     0.230000000
H     0.286000000     0.721000000     0.028000000
C    -0.534000000    -0.582000000     1.532000000
H    -0.341000000     0.149000000     2.313000000
C    -0.919000000    -1.837000000     1.905000000
H    -1.024000000    -2.112000000     2.952000000
C    -1.182000000    -2.835000000     0.969000000
C    -1.769000000    -4.175000000     1.299000000
O    -1.923000000    -4.449000000     2.474000000
O    -2.222000000    -4.991000000     0.538000000
O    -2.252000000    -4.424000000     5.394000000
H    -1.782000000    -4.334000000     4.564000000
H    -1.569000000    -4.620000000     6.035000000
O    -3.592000000    -1.070000000     0.269000000
H    -3.806000000    -1.518000000    -0.550000000
H    -2.668000000    -0.839000000     0.181000000
O    -2.788000000    -8.637000000    -3.269000000
H    -2.563000000    -8.208000000    -2.444000000
H    -2.007000000    -9.141000000    -3.498000000
O    -6.249000000    -5.542000000    -2.336000000
H    -5.560000000    -5.002000000    -1.948000000
H    -7.012000000    -4.966000000    -2.371000000
O    -4.534000000    -1.766000000     5.157000000
H    -4.525000000    -2.527000000     4.577000000
H    -4.470000000    -2.135000000     6.038000000
O    -4.411000000    -3.389000000     2.985000000
H    -3.467000000    -3.537000000     2.936000000
H    -4.799000000    -4.229000000     2.740000000
O    -4.364000000    -9.614000000     3.028000000
H    -4.948000000    -8.856000000     3.028000000
H    -4.740000000   -10.205000000     3.682000000
O    -4.371000000    -6.067000000     4.931000000
H    -3.553000000    -5.568000000     4.934000000
H    -4.741000000    -5.914000000     4.062000000
O    -3.228000000    -2.664000000     7.561000000
H    -2.414000000    -2.863000000     7.099000000
H    -3.809000000    -3.394000000     7.347000000
O    -7.851000000    -3.825000000     2.204000000
H    -8.357000000    -4.366000000     1.597000000
H    -6.949000000    -4.125000000     2.098000000
O    -7.089000000    -6.775000000     0.679000000
H    -6.186000000    -6.805000000     0.365000000
H    -7.018000000    -6.899000000     1.626000000
O    -4.364000000    -5.762000000     2.025000000
H    -4.437000000    -6.686000000     1.785000000
H    -3.421000000    -5.597000000     2.054000000
O    -1.758000000    -7.463000000     6.135000000
H    -1.351000000    -6.730000000     6.597000000
H    -1.471000000    -7.361000000     5.227000000
O    -5.553000000    -0.209000000     2.456000000
H    -4.838000000    -0.311000000     1.828000000
H    -5.141000000    -0.339000000     3.311000000
O    -1.981000000    -7.299000000    -0.604000000
H    -2.008000000    -6.442000000    -0.178000000
H    -1.340000000    -7.798000000    -0.098000000
O    -4.466000000    -3.971000000    -0.906000000
H    -3.999000000    -4.588000000    -0.343000000
H    -4.826000000    -3.321000000    -0.302000000
O    -1.078000000    -6.789000000     3.444000000
H    -1.288000000    -6.022000000     2.911000000
H    -0.848000000    -7.466000000     2.808000000
O    -0.593000000    -8.686000000     1.385000000
H    -1.048000000    -9.448000000     1.744000000
H     0.327000000    -8.949000000     1.355000000
O    -4.553000000    -7.809000000     0.270000000
H    -3.666000000    -7.551000000     0.018000000
H    -4.563000000    -8.761000000     0.172000000
