215
-1463.46463
C    -4.208000000     3.159000000     0.682000000
H    -4.254000000     3.010000000    -0.394000000
C    -3.109000000     3.400000000     1.487000000
C    -3.116000000     2.958000000     2.789000000
H    -2.235000000     2.855000000     3.418000000
C    -1.775000000     3.785000000     0.878000000
O    -1.970000000     4.654000000    -0.206000000
H    -1.271000000     2.858000000     0.565000000
O    -0.969000000     4.400000000     1.912000000
C     0.346000000     4.161000000     1.870000000
C     0.797000000     3.182000000     2.853000000
H     0.109000000     2.640000000     3.496000000
C     2.102000000     2.736000000     2.851000000
O     2.586000000     1.826000000     3.716000000
C     3.084000000     3.263000000     1.957000000
C     4.552000000     2.814000000     1.887000000
H     5.279000000     3.508000000     1.460000000
C     4.656000000     1.466000000     1.162000000
C     4.921000000     1.435000000    -0.242000000
H     5.121000000     2.404000000    -0.694000000
H     4.980000000     2.678000000     2.882000000
C     2.565000000     4.208000000     0.986000000
H     3.227000000     4.702000000     0.280000000
C     1.283000000     4.689000000     0.978000000
C     0.772000000     5.637000000    -0.119000000
H     1.535000000     6.285000000    -0.556000000
H     0.006000000     6.329000000     0.237000000
C     0.160000000     4.874000000    -1.307000000
C     1.011000000     4.407000000    -2.304000000
H     2.062000000     4.683000000    -2.282000000
C    -1.156000000     4.466000000    -1.291000000
C    -1.599000000     3.582000000    -2.265000000
H    -2.517000000     3.011000000    -2.374000000
C    -0.830000000     3.202000000    -3.321000000
O    -1.273000000     2.298000000    -4.277000000
C    -1.019000000     0.903000000    -4.024000000
C    -2.268000000     0.073000000    -4.103000000
C    -2.096000000    -1.331000000    -4.336000000
H    -1.079000000    -1.682000000    -4.493000000
C    -3.613000000     0.494000000    -3.860000000
H    -3.754000000     1.560000000    -3.704000000
O     0.063000000     0.537000000    -4.886000000
H    -0.607000000     0.728000000    -3.019000000
C     0.526000000     3.606000000    -3.353000000
C     1.585000000     3.056000000    -4.363000000
H     2.385000000     3.794000000    -4.450000000
H     1.108000000     3.127000000    -5.342000000
C     2.118000000     1.640000000    -4.120000000
C     3.365000000     1.475000000    -3.544000000
H     3.832000000     2.411000000    -3.250000000
C     1.425000000     0.442000000    -4.441000000
C     1.974000000    -0.802000000    -4.098000000
H     1.363000000    -1.698000000    -4.175000000
C     3.226000000    -0.925000000    -3.443000000
O     3.663000000    -2.184000000    -3.014000000
C     3.351000000    -2.469000000    -1.618000000
C     2.739000000    -3.832000000    -1.419000000
C     2.264000000    -4.509000000    -2.524000000
H     2.520000000    -4.163000000    -3.523000000
C     2.510000000    -4.293000000    -0.098000000
H     2.867000000    -3.698000000     0.738000000
O     4.549000000    -2.233000000    -0.913000000
H     2.658000000    -1.698000000    -1.251000000
C     3.821000000     0.247000000    -3.066000000
C     5.206000000     0.277000000    -2.437000000
H     5.803000000     1.083000000    -2.870000000
H     5.685000000    -0.667000000    -2.702000000
C     5.088000000     0.259000000    -0.943000000
C     4.691000000    -0.988000000    -0.289000000
C     4.407000000    -0.929000000     1.066000000
H     4.132000000    -1.843000000     1.586000000
C     4.488000000     0.264000000     1.791000000
O     4.025000000     0.120000000     3.109000000
C     2.626000000     0.443000000     3.313000000
H     2.195000000     0.322000000     2.308000000
C     1.959000000    -0.423000000     4.384000000
C     0.929000000     0.123000000     5.130000000
H     0.566000000     1.146000000     5.075000000
C     2.298000000    -1.742000000     4.526000000
H     3.194000000    -2.052000000     3.994000000
C     1.568000000    -2.594000000     5.384000000
O     2.054000000    -3.871000000     5.669000000
C     0.529000000    -2.114000000     6.075000000
H    -0.130000000    -2.721000000     6.691000000
C     0.220000000    -0.718000000     6.002000000
O    -0.715000000    -0.293000000     6.885000000
C    -1.554000000     0.791000000     6.705000000
C    -2.533000000     0.812000000     5.726000000
H    -2.633000000    -0.143000000     5.215000000
C    -1.374000000     1.875000000     7.522000000
H    -0.596000000     1.874000000     8.282000000
C    -2.221000000     3.007000000     7.400000000
H    -2.136000000     3.906000000     8.005000000
C    -3.236000000     3.032000000     6.430000000
H    -3.782000000     3.953000000     6.247000000
C    -3.397000000     1.881000000     5.636000000
O    -4.339000000     1.878000000     4.647000000
C    -4.298000000     2.407000000     3.347000000
C    -5.434000000     2.286000000     2.588000000
H    -6.330000000     1.757000000     2.905000000
C    -5.400000000     2.607000000     1.266000000
O    -6.509000000     2.321000000     0.518000000
C    -6.689000000     2.220000000    -0.799000000
C    -6.047000000     1.221000000    -1.582000000
H    -5.309000000     0.558000000    -1.138000000
C    -7.683000000     3.060000000    -1.277000000
H    -8.252000000     3.769000000    -0.682000000
C    -8.061000000     2.874000000    -2.625000000
H    -8.862000000     3.477000000    -3.046000000
C    -7.436000000     1.869000000    -3.439000000
H    -7.784000000     1.664000000    -4.448000000
C    -6.420000000     1.116000000    -2.920000000
O    -5.948000000     0.098000000    -3.683000000
C    -4.688000000    -0.385000000    -3.737000000
C    -4.413000000    -1.711000000    -3.952000000
H    -5.256000000    -2.396000000    -3.912000000
C    -3.146000000    -2.219000000    -4.269000000
O    -2.882000000    -3.552000000    -4.326000000
C    -1.688000000    -4.188000000    -4.765000000
C    -0.979000000    -4.919000000    -3.791000000
H    -1.281000000    -4.919000000    -2.747000000
C    -1.339000000    -4.312000000    -6.119000000
H    -1.831000000    -3.640000000    -6.817000000
C    -0.264000000    -5.149000000    -6.431000000
H     0.036000000    -5.202000000    -7.474000000
C     0.401000000    -5.814000000    -5.471000000
H     1.231000000    -6.481000000    -5.687000000
C     0.008000000    -5.720000000    -4.175000000
O     0.801000000    -6.423000000    -3.281000000
C     1.444000000    -5.658000000    -2.310000000
C     1.292000000    -6.169000000    -1.067000000
H     0.787000000    -7.131000000    -1.043000000
C     1.803000000    -5.493000000     0.084000000
O     1.428000000    -5.931000000     1.306000000
C     2.227000000    -5.680000000     2.432000000
C     3.361000000    -6.427000000     2.647000000
H     3.641000000    -7.151000000     1.886000000
C     4.136000000    -6.153000000     3.782000000
H     5.075000000    -6.674000000     3.950000000
C     3.729000000    -5.232000000     4.730000000
H     4.239000000    -4.998000000     5.661000000
C     2.507000000    -4.664000000     4.605000000
C     1.791000000    -4.798000000     3.475000000
H     0.856000000    -4.269000000     3.312000000
C    -0.796000000    -3.234000000    -0.041000000
H    -1.142000000    -4.180000000    -0.448000000
C    -0.292000000    -2.185000000    -0.772000000
H    -0.305000000    -2.207000000    -1.859000000
C     0.110000000    -1.077000000    -0.027000000
H     0.689000000    -0.250000000    -0.436000000
C    -0.212000000    -0.938000000     1.316000000
H     0.096000000    -0.015000000     1.800000000
C    -0.829000000    -2.011000000     1.992000000
H    -1.145000000    -1.950000000     3.030000000
C    -1.112000000    -3.178000000     1.303000000
C    -1.685000000    -4.380000000     2.022000000
O    -1.533000000    -4.423000000     3.228000000
O    -2.029000000    -5.371000000     1.352000000
O    -1.258000000    -5.004000000     5.868000000
H    -1.097000000    -5.002000000     4.924000000
H    -0.655000000    -5.663000000     6.212000000
O     0.133000000    -8.157000000     3.440000000
H    -0.794000000    -7.989000000     3.608000000
H     0.462000000    -7.339000000     3.067000000
O    -5.190000000    -8.900000000     3.061000000
H    -5.028000000    -8.093000000     2.573000000
H    -5.252000000    -8.620000000     3.974000000
O    -3.170000000    -0.298000000    -0.237000000
H    -2.382000000    -0.842000000    -0.254000000
H    -3.473000000    -0.343000000     0.670000000
O    -4.039000000    -0.791000000     2.599000000
H    -3.803000000    -0.040000000     3.142000000
H    -4.077000000    -1.527000000     3.210000000
O    -7.958000000    -4.445000000     2.053000000
H    -8.309000000    -3.555000000     2.087000000
H    -7.465000000    -4.477000000     1.233000000
O     2.635000000    -8.770000000     0.002000000
H     2.052000000    -8.249000000     0.553000000
H     3.306000000    -9.095000000     0.603000000
O    -3.838000000    -2.865000000     4.209000000
H    -2.981000000    -3.256000000     4.037000000
H    -4.071000000    -3.174000000     5.084000000
O    -6.604000000    -4.648000000    -0.289000000
H    -5.668000000    -4.492000000    -0.165000000
H    -6.782000000    -4.347000000    -1.180000000
O    -4.819000000    -6.672000000     1.665000000
H    -4.070000000    -6.185000000     1.320000000
H    -5.514000000    -6.528000000     1.023000000
O    -2.430000000    -8.447000000     6.082000000
H    -2.572000000    -7.672000000     6.626000000
H    -2.727000000    -8.187000000     5.211000000
O    -6.438000000    -0.560000000     1.142000000
H    -6.337000000     0.027000000     0.393000000
H    -5.563000000    -0.614000000     1.524000000
O    -2.175000000    -7.012000000    -0.944000000
H    -2.190000000    -6.548000000    -0.108000000
H    -1.520000000    -7.700000000    -0.825000000
O    -4.005000000    -4.316000000    -0.624000000
H    -3.326000000    -4.193000000     0.040000000
H    -3.906000000    -3.565000000    -1.209000000
O    -3.896000000    -4.208000000     6.464000000
H    -2.984000000    -4.481000000     6.363000000
H    -4.107000000    -4.411000000     7.376000000
O    -2.430000000    -7.053000000     3.715000000
H    -3.356000000    -6.878000000     3.883000000
H    -2.164000000    -6.367000000     3.103000000
O    -1.005000000    -8.691000000     0.926000000
H    -1.877000000    -9.080000000     0.868000000
H    -0.868000000    -8.549000000     1.863000000
O    -3.406000000    -7.530000000    -3.202000000
H    -4.092000000    -6.866000000    -3.260000000
H    -2.922000000    -7.306000000    -2.407000000
O    -5.965000000    -5.954000000     4.761000000
H    -5.524000000    -5.363000000     5.372000000
H    -5.559000000    -5.769000000     3.914000000
