215
-1469.81591
C    -4.567000000     3.069000000    -0.302000000
H    -4.434000000     3.445000000    -1.314000000
C    -3.574000000     3.130000000     0.681000000
C    -3.750000000     2.482000000     1.957000000
H    -2.913000000     2.424000000     2.649000000
C    -2.230000000     3.684000000     0.448000000
O    -2.291000000     4.437000000    -0.757000000
H    -1.640000000     2.773000000     0.269000000
O    -1.582000000     4.452000000     1.479000000
C    -0.226000000     4.250000000     1.664000000
C     0.086000000     3.552000000     2.861000000
H    -0.705000000     3.195000000     3.516000000
C     1.420000000     3.285000000     3.169000000
O     1.750000000     2.431000000     4.207000000
C     2.391000000     3.736000000     2.291000000
C     3.805000000     3.418000000     2.619000000
H     4.491000000     4.099000000     2.111000000
C     4.071000000     2.003000000     1.949000000
C     4.529000000     1.997000000     0.644000000
H     5.012000000     2.858000000     0.188000000
H     3.918000000     3.325000000     3.701000000
C     2.098000000     4.406000000     1.143000000
H     2.866000000     4.752000000     0.456000000
C     0.787000000     4.695000000     0.812000000
C     0.506000000     5.428000000    -0.464000000
H     1.330000000     6.089000000    -0.740000000
H    -0.195000000     6.259000000    -0.364000000
C    -0.026000000     4.575000000    -1.567000000
C     0.910000000     4.062000000    -2.491000000
H     1.932000000     4.412000000    -2.372000000
C    -1.334000000     4.106000000    -1.692000000
C    -1.627000000     3.227000000    -2.686000000
H    -2.629000000     2.820000000    -2.797000000
C    -0.681000000     2.671000000    -3.543000000
O    -1.069000000     1.594000000    -4.318000000
C    -0.444000000     0.311000000    -3.868000000
C    -1.495000000    -0.719000000    -4.167000000
C    -1.178000000    -2.070000000    -4.402000000
H    -0.156000000    -2.435000000    -4.460000000
C    -2.877000000    -0.402000000    -4.002000000
H    -3.045000000     0.593000000    -3.599000000
O     0.715000000    -0.127000000    -4.663000000
H    -0.201000000     0.398000000    -2.799000000
C     0.607000000     3.194000000    -3.504000000
C     1.648000000     2.641000000    -4.426000000
H     2.396000000     3.434000000    -4.487000000
H     1.225000000     2.373000000    -5.396000000
C     2.422000000     1.437000000    -3.888000000
C     3.559000000     1.624000000    -3.081000000
H     3.967000000     2.606000000    -2.855000000
C     1.914000000     0.140000000    -4.109000000
C     2.617000000    -0.928000000    -3.501000000
H     2.337000000    -1.975000000    -3.589000000
C     3.745000000    -0.718000000    -2.804000000
O     4.373000000    -1.744000000    -2.129000000
C     3.763000000    -1.990000000    -0.876000000
C     3.083000000    -3.367000000    -0.722000000
C     2.750000000    -4.130000000    -1.820000000
H     2.971000000    -3.765000000    -2.820000000
C     2.916000000    -3.932000000     0.603000000
H     3.225000000    -3.323000000     1.449000000
O     4.831000000    -1.666000000     0.059000000
H     2.926000000    -1.286000000    -0.759000000
C     4.179000000     0.546000000    -2.492000000
C     5.304000000     0.792000000    -1.473000000
H     5.700000000     1.752000000    -1.812000000
H     6.118000000     0.076000000    -1.600000000
C     4.781000000     0.790000000    -0.057000000
C     4.706000000    -0.406000000     0.635000000
C     4.194000000    -0.408000000     1.936000000
H     4.017000000    -1.349000000     2.450000000
C     3.866000000     0.770000000     2.584000000
O     3.228000000     0.745000000     3.844000000
C     1.846000000     1.016000000     3.970000000
H     1.443000000     0.867000000     2.957000000
C     1.014000000     0.123000000     4.869000000
C    -0.093000000     0.623000000     5.602000000
H    -0.390000000     1.668000000     5.598000000
C     1.334000000    -1.200000000     4.975000000
H     2.227000000    -1.566000000     4.475000000
C     0.512000000    -2.155000000     5.625000000
O     0.814000000    -3.493000000     5.798000000
C    -0.596000000    -1.644000000     6.355000000
H    -1.239000000    -2.274000000     6.964000000
C    -0.893000000    -0.296000000     6.293000000
O    -2.034000000     0.132000000     6.983000000
C    -2.941000000     0.981000000     6.370000000
C    -3.637000000     0.518000000     5.258000000
H    -3.632000000    -0.525000000     4.955000000
C    -3.023000000     2.310000000     6.810000000
H    -2.332000000     2.635000000     7.583000000
C    -3.867000000     3.214000000     6.152000000
H    -3.852000000     4.267000000     6.421000000
C    -4.577000000     2.725000000     5.048000000
H    -5.100000000     3.484000000     4.472000000
C    -4.381000000     1.435000000     4.537000000
O    -5.085000000     1.045000000     3.360000000
C    -4.922000000     1.739000000     2.172000000
C    -5.914000000     1.722000000     1.243000000
H    -6.715000000     0.993000000     1.345000000
C    -5.742000000     2.412000000     0.056000000
O    -6.701000000     2.156000000    -0.908000000
C    -6.369000000     1.806000000    -2.221000000
C    -5.818000000     0.624000000    -2.478000000
H    -5.605000000    -0.119000000    -1.713000000
C    -6.612000000     2.685000000    -3.244000000
H    -6.976000000     3.701000000    -3.115000000
C    -6.274000000     2.362000000    -4.590000000
H    -6.456000000     3.042000000    -5.419000000
C    -5.858000000     1.077000000    -4.841000000
H    -5.786000000     0.786000000    -5.886000000
C    -5.549000000     0.227000000    -3.796000000
O    -5.135000000    -1.025000000    -4.023000000
C    -3.812000000    -1.398000000    -4.117000000
C    -3.479000000    -2.745000000    -4.375000000
H    -4.262000000    -3.489000000    -4.499000000
C    -2.178000000    -3.092000000    -4.488000000
O    -1.864000000    -4.438000000    -4.539000000
C    -0.559000000    -4.839000000    -4.736000000
C     0.149000000    -5.296000000    -3.638000000
H    -0.364000000    -5.308000000    -2.680000000
C     0.014000000    -4.842000000    -5.992000000
H    -0.516000000    -4.573000000    -6.902000000
C     1.335000000    -5.288000000    -6.190000000
H     1.707000000    -5.248000000    -7.211000000
C     1.994000000    -5.815000000    -5.105000000
H     2.974000000    -6.273000000    -5.203000000
C     1.442000000    -5.799000000    -3.815000000
O     2.148000000    -6.292000000    -2.736000000
C     2.219000000    -5.403000000    -1.648000000
C     1.997000000    -5.865000000    -0.386000000
H     1.526000000    -6.838000000    -0.275000000
C     2.336000000    -5.145000000     0.750000000
O     1.949000000    -5.738000000     1.948000000
C     2.327000000    -5.303000000     3.157000000
C     3.547000000    -5.633000000     3.691000000
H     4.251000000    -6.229000000     3.116000000
C     3.931000000    -5.154000000     4.923000000
H     4.942000000    -5.304000000     5.294000000
C     3.045000000    -4.339000000     5.648000000
H     3.362000000    -3.803000000     6.539000000
C     1.765000000    -4.155000000     5.177000000
C     1.413000000    -4.667000000     3.933000000
H     0.430000000    -4.439000000     3.531000000
C    -0.599000000    -2.536000000    -0.168000000
H    -0.769000000    -3.557000000    -0.499000000
C     0.041000000    -1.569000000    -1.051000000
H     0.154000000    -1.745000000    -2.118000000
C     0.471000000    -0.351000000    -0.421000000
H     1.120000000     0.328000000    -0.999000000
C     0.150000000    -0.052000000     0.882000000
H     0.480000000     0.885000000     1.324000000
C    -0.494000000    -0.962000000     1.690000000
H    -0.656000000    -0.864000000     2.761000000
C    -0.808000000    -2.230000000     1.181000000
C    -1.414000000    -3.317000000     2.036000000
O    -2.096000000    -2.976000000     3.002000000
O    -1.358000000    -4.546000000     1.780000000
O    -1.094000000    -6.502000000     0.357000000
H    -1.033000000    -5.832000000     1.038000000
H    -1.642000000    -6.106000000    -0.321000000
O    -1.288000000    -8.812000000    -2.095000000
H    -0.384000000    -9.082000000    -1.937000000
H    -1.560000000    -8.393000000    -1.278000000
O    -1.114000000    -6.625000000     6.230000000
H    -0.693000000    -5.769000000     6.150000000
H    -0.387000000    -7.245000000     6.286000000
O    -3.898000000    -2.358000000    -0.861000000
H    -3.290000000    -1.628000000    -0.739000000
H    -4.379000000    -2.409000000    -0.035000000
O    -5.529000000    -5.005000000     4.873000000
H    -5.587000000    -5.166000000     5.815000000
H    -5.314000000    -5.858000000     4.497000000
O    -4.261000000    -1.931000000     2.106000000
H    -3.405000000    -1.862000000     2.530000000
H    -4.365000000    -2.865000000     1.927000000
O    -7.033000000    -3.467000000    -1.878000000
H    -6.109000000    -3.218000000    -1.903000000
H    -7.496000000    -2.699000000    -2.212000000
O    -7.159000000    -3.963000000     1.469000000
H    -6.243000000    -4.218000000     1.582000000
H    -7.133000000    -3.010000000     1.384000000
O    -5.272000000    -1.891000000     6.995000000
H    -4.522000000    -2.220000000     6.500000000
H    -5.956000000    -2.547000000     6.858000000
O    -2.410000000    -8.798000000     5.815000000
H    -2.025000000    -7.922000000     5.808000000
H    -3.041000000    -8.777000000     6.534000000
O    -3.639000000    -3.159000000     5.295000000
H    -3.087000000    -3.174000000     4.513000000
H    -4.314000000    -3.816000000     5.124000000
O    -4.462000000    -4.681000000     1.839000000
H    -3.565000000    -4.382000000     1.984000000
H    -4.490000000    -5.554000000     2.231000000
O    -4.562000000    -7.472000000     3.668000000
H    -4.503000000    -8.379000000     3.368000000
H    -3.690000000    -7.110000000     3.511000000
O    -0.663000000    -9.088000000     1.331000000
H    -0.780000000    -8.169000000     1.092000000
H    -1.133000000    -9.182000000     2.160000000
O    -2.842000000    -5.558000000    -1.553000000
H    -3.650000000    -5.548000000    -1.040000000
H    -2.649000000    -4.634000000    -1.713000000
O    -5.451000000    -6.093000000    -0.561000000
H    -5.995000000    -5.347000000    -0.309000000
H    -5.922000000    -6.497000000    -1.290000000
O     3.466000000    -8.231000000     1.308000000
H     3.568000000    -8.585000000     2.191000000
H     2.580000000    -7.869000000     1.296000000
O    -6.965000000    -1.088000000     3.151000000
H    -6.014000000    -1.141000000     3.055000000
H    -7.113000000    -0.271000000     3.628000000
O    -2.181000000    -6.345000000     3.233000000
H    -1.419000000    -6.499000000     3.790000000
H    -1.985000000    -5.526000000     2.778000000
