215
-1461.15941
C    -4.998000000     2.310000000     1.147000000
H    -5.306000000     2.590000000     0.143000000
C    -3.723000000     2.658000000     1.651000000
C    -3.337000000     2.328000000     2.981000000
H    -2.361000000     2.581000000     3.389000000
C    -2.656000000     3.230000000     0.804000000
O    -3.182000000     3.737000000    -0.483000000
H    -1.977000000     2.392000000     0.586000000
O    -1.868000000     4.228000000     1.508000000
C    -0.563000000     4.455000000     1.244000000
C     0.346000000     4.012000000     2.219000000
H    -0.020000000     3.538000000     3.126000000
C     1.710000000     3.908000000     2.026000000
O     2.470000000     3.405000000     3.058000000
C     2.233000000     4.364000000     0.815000000
C     3.728000000     4.168000000     0.506000000
H     3.922000000     4.952000000    -0.229000000
C     4.042000000     2.834000000     0.034000000
C     4.189000000     2.625000000    -1.367000000
H     4.153000000     3.408000000    -2.120000000
H     4.363000000     4.426000000     1.356000000
C     1.366000000     4.797000000    -0.184000000
H     1.867000000     5.167000000    -1.075000000
C    -0.011000000     4.873000000     0.018000000
C    -0.861000000     5.330000000    -1.199000000
H    -0.299000000     6.016000000    -1.837000000
H    -1.749000000     5.851000000    -0.835000000
C    -1.356000000     4.268000000    -2.089000000
C    -0.722000000     3.957000000    -3.297000000
H     0.185000000     4.417000000    -3.682000000
C    -2.472000000     3.483000000    -1.669000000
C    -2.918000000     2.468000000    -2.496000000
H    -3.766000000     1.861000000    -2.191000000
C    -2.197000000     2.087000000    -3.637000000
O    -2.516000000     0.982000000    -4.238000000
C    -1.765000000    -0.226000000    -4.012000000
C    -2.595000000    -1.485000000    -3.713000000
C    -2.098000000    -2.761000000    -3.887000000
H    -1.231000000    -2.983000000    -4.505000000
C    -3.768000000    -1.296000000    -3.044000000
H    -4.175000000    -0.308000000    -2.845000000
O    -0.851000000    -0.408000000    -5.022000000
H    -1.165000000    -0.079000000    -3.102000000
C    -1.143000000     2.845000000    -4.002000000
C    -0.251000000     2.415000000    -5.136000000
H     0.448000000     3.192000000    -5.452000000
H    -0.813000000     2.061000000    -6.003000000
C     0.787000000     1.392000000    -4.746000000
C     1.993000000     1.673000000    -4.212000000
H     2.255000000     2.722000000    -4.096000000
C     0.436000000     0.000000000    -4.813000000
C     1.447000000    -0.950000000    -4.532000000
H     1.226000000    -1.987000000    -4.770000000
C     2.603000000    -0.566000000    -3.884000000
O     3.394000000    -1.629000000    -3.357000000
C     3.499000000    -1.738000000    -1.865000000
C     3.283000000    -3.137000000    -1.281000000
C     2.766000000    -4.169000000    -2.132000000
H     2.635000000    -3.975000000    -3.193000000
C     3.413000000    -3.432000000     0.111000000
H     3.740000000    -2.658000000     0.801000000
O     4.665000000    -1.038000000    -1.434000000
H     2.604000000    -1.241000000    -1.462000000
C     2.920000000     0.777000000    -3.752000000
C     4.346000000     1.208000000    -3.364000000
H     4.551000000     2.182000000    -3.813000000
H     5.166000000     0.601000000    -3.753000000
C     4.318000000     1.341000000    -1.826000000
C     4.457000000     0.240000000    -1.009000000
C     4.526000000     0.479000000     0.385000000
H     4.631000000    -0.414000000     0.997000000
C     4.201000000     1.745000000     0.914000000
O     4.006000000     1.889000000     2.245000000
C     2.725000000     2.010000000     2.835000000
H     2.076000000     1.530000000     2.088000000
C     2.548000000     1.173000000     4.114000000
C     1.609000000     1.416000000     5.112000000
H     0.943000000     2.272000000     5.042000000
C     3.328000000    -0.006000000     4.296000000
H     4.134000000    -0.180000000     3.588000000
C     3.152000000    -0.829000000     5.368000000
O     4.038000000    -1.870000000     5.552000000
C     2.212000000    -0.546000000     6.330000000
H     2.042000000    -1.193000000     7.188000000
C     1.473000000     0.642000000     6.237000000
O     0.497000000     0.828000000     7.159000000
C    -0.705000000     1.368000000     6.976000000
C    -1.628000000     0.983000000     6.020000000
H    -1.410000000     0.131000000     5.382000000
C    -1.029000000     2.525000000     7.742000000
H    -0.410000000     2.768000000     8.602000000
C    -2.196000000     3.254000000     7.539000000
H    -2.427000000     4.072000000     8.217000000
C    -3.106000000     2.834000000     6.554000000
H    -4.032000000     3.399000000     6.480000000
C    -2.793000000     1.725000000     5.803000000
O    -3.799000000     1.187000000     5.072000000
C    -4.221000000     1.631000000     3.858000000
C    -5.473000000     1.204000000     3.309000000
H    -6.100000000     0.539000000     3.897000000
C    -5.845000000     1.501000000     1.999000000
O    -6.955000000     0.941000000     1.421000000
C    -6.901000000     0.586000000     0.064000000
C    -6.309000000    -0.642000000    -0.296000000
H    -5.831000000    -1.296000000     0.429000000
C    -7.667000000     1.279000000    -0.835000000
H    -8.221000000     2.108000000    -0.403000000
C    -7.698000000     0.836000000    -2.167000000
H    -8.306000000     1.314000000    -2.932000000
C    -7.004000000    -0.308000000    -2.576000000
H    -7.002000000    -0.658000000    -3.605000000
C    -6.345000000    -1.073000000    -1.614000000
O    -5.715000000    -2.280000000    -1.932000000
C    -4.481000000    -2.398000000    -2.540000000
C    -3.931000000    -3.674000000    -2.727000000
H    -4.513000000    -4.528000000    -2.392000000
C    -2.848000000    -3.868000000    -3.539000000
O    -2.496000000    -5.218000000    -3.814000000
C    -1.168000000    -5.554000000    -4.131000000
C    -0.234000000    -5.891000000    -3.162000000
H    -0.579000000    -5.843000000    -2.133000000
C    -0.809000000    -5.659000000    -5.453000000
H    -1.501000000    -5.439000000    -6.261000000
C     0.548000000    -5.830000000    -5.767000000
H     0.839000000    -5.718000000    -6.808000000
C     1.501000000    -6.076000000    -4.775000000
H     2.521000000    -6.216000000    -5.122000000
C     1.112000000    -6.121000000    -3.494000000
O     2.023000000    -6.382000000    -2.517000000
C     2.441000000    -5.387000000    -1.682000000
C     2.657000000    -5.695000000    -0.287000000
H     2.372000000    -6.647000000     0.152000000
C     3.053000000    -4.689000000     0.607000000
O     3.062000000    -4.987000000     1.956000000
C     3.820000000    -4.409000000     2.934000000
C     5.044000000    -5.087000000     3.206000000
H     5.273000000    -5.947000000     2.581000000
C     5.851000000    -4.696000000     4.268000000
H     6.871000000    -5.057000000     4.373000000
C     5.426000000    -3.696000000     5.134000000
H     6.108000000    -3.298000000     5.881000000
C     4.263000000    -2.985000000     4.807000000
C     3.400000000    -3.360000000     3.744000000
H     2.511000000    -2.753000000     3.594000000
C    -0.020000000    -1.893000000    -0.147000000
H    -0.194000000    -2.957000000    -0.294000000
C     0.191000000    -1.090000000    -1.274000000
H     0.230000000    -1.601000000    -2.233000000
C     0.478000000     0.245000000    -1.129000000
H     0.701000000     0.859000000    -2.056000000
C     0.448000000     0.862000000     0.140000000
H     0.732000000     1.903000000     0.273000000
C     0.286000000     0.006000000     1.265000000
H     0.140000000     0.447000000     2.247000000
C     0.096000000    -1.367000000     1.122000000
C    -0.014000000    -2.302000000     2.241000000
O     0.122000000    -1.921000000     3.438000000
O    -0.286000000    -3.500000000     2.110000000
O     0.898000000    -3.178000000     5.715000000
H     0.946000000    -3.985000000     5.203000000
H     0.643000000    -2.507000000     5.082000000
O    -3.196000000    -1.848000000     7.982000000
H    -2.674000000    -2.635000000     7.827000000
H    -2.585000000    -1.124000000     7.846000000
O    -5.717000000    -1.310000000     6.062000000
H    -5.812000000    -0.421000000     6.403000000
H    -4.813000000    -1.350000000     5.748000000
O    -2.878000000    -0.749000000     0.085000000
H    -2.957000000     0.032000000     0.633000000
H    -2.429000000    -0.444000000    -0.703000000
O    -6.517000000    -5.675000000     3.411000000
H    -5.842000000    -5.315000000     2.836000000
H    -6.273000000    -5.371000000     4.286000000
O    -4.064000000    -1.816000000     3.052000000
H    -3.425000000    -2.267000000     3.605000000
H    -3.577000000    -1.588000000     2.260000000
O    -3.495000000    -7.712000000     1.805000000
H    -3.456000000    -8.125000000     0.942000000
H    -2.898000000    -8.230000000     2.345000000
O     2.301000000    -8.678000000     1.613000000
H     3.037000000    -8.263000000     1.163000000
H     1.740000000    -9.000000000     0.908000000
O     3.009000000    -4.485000000     7.390000000
H     2.200000000    -4.946000000     7.612000000
H     2.734000000    -3.796000000     6.786000000
O    -7.026000000    -1.662000000     3.277000000
H    -6.074000000    -1.703000000     3.371000000
H    -7.361000000    -2.179000000     4.010000000
O    -4.667000000    -5.320000000     0.994000000
H    -4.041000000    -4.614000000     0.832000000
H    -4.154000000    -6.001000000     1.429000000
O    -1.968000000    -3.056000000     4.144000000
H    -1.840000000    -3.591000000     3.361000000
H    -1.274000000    -2.398000000     4.100000000
O     0.993000000    -7.082000000     6.022000000
H     0.604000000    -6.511000000     5.360000000
H     1.671000000    -7.566000000     5.552000000
O     0.666000000    -5.342000000     3.912000000
H     1.535000000    -5.675000000     3.688000000
H     0.506000000    -4.644000000     3.277000000
O    -1.061000000    -5.749000000     0.346000000
H    -0.398000000    -5.184000000     0.744000000
H    -1.790000000    -5.162000000     0.149000000
O    -1.611000000    -4.480000000     6.404000000
H    -1.627000000    -4.060000000     5.544000000
H    -0.784000000    -4.195000000     6.794000000
O    -3.087000000    -6.662000000     7.109000000
H    -3.992000000    -6.356000000     7.053000000
H    -2.568000000    -5.943000000     6.749000000
O    -0.623000000    -8.510000000     0.249000000
H    -1.110000000    -8.968000000     0.934000000
H    -0.830000000    -7.585000000     0.386000000
O    -2.728000000    -3.476000000     0.586000000
H    -2.761000000    -2.566000000     0.290000000
H    -1.946000000    -3.521000000     1.135000000
