215
-1438.93838
C    -4.818000000     1.994000000     0.821000000
H    -4.657000000     1.861000000    -0.246000000
C    -3.781000000     2.637000000     1.552000000
C    -3.848000000     2.589000000     2.978000000
H    -3.094000000     3.052000000     3.609000000
C    -2.589000000     3.278000000     0.787000000
O    -3.064000000     3.850000000    -0.405000000
H    -1.861000000     2.485000000     0.557000000
O    -1.936000000     4.210000000     1.660000000
C    -0.540000000     4.219000000     1.657000000
C     0.111000000     3.445000000     2.666000000
H    -0.494000000     3.047000000     3.477000000
C     1.541000000     3.504000000     2.654000000
O     2.234000000     2.735000000     3.599000000
C     2.288000000     4.109000000     1.606000000
C     3.856000000     3.972000000     1.453000000
H     4.341000000     4.793000000     0.920000000
C     4.233000000     2.656000000     0.817000000
C     4.271000000     2.570000000    -0.596000000
H     4.158000000     3.497000000    -1.152000000
H     4.138000000     3.928000000     2.507000000
C     1.601000000     4.785000000     0.540000000
H     2.157000000     5.189000000    -0.302000000
C     0.182000000     4.763000000     0.586000000
C    -0.568000000     5.302000000    -0.615000000
H     0.034000000     6.070000000    -1.105000000
H    -1.307000000     6.019000000    -0.252000000
C    -1.144000000     4.332000000    -1.704000000
C    -0.327000000     4.174000000    -2.839000000
H     0.603000000     4.736000000    -2.830000000
C    -2.297000000     3.600000000    -1.533000000
C    -2.689000000     2.727000000    -2.513000000
H    -3.640000000     2.223000000    -2.365000000
C    -1.882000000     2.503000000    -3.641000000
O    -2.094000000     1.448000000    -4.473000000
C    -1.371000000     0.245000000    -4.188000000
C    -2.273000000    -0.907000000    -4.184000000
C    -1.790000000    -2.181000000    -4.597000000
H    -0.766000000    -2.423000000    -4.867000000
C    -3.551000000    -0.762000000    -3.635000000
H    -3.850000000     0.244000000    -3.350000000
O    -0.318000000     0.070000000    -5.193000000
H    -0.877000000     0.399000000    -3.217000000
C    -0.625000000     3.114000000    -3.762000000
C     0.311000000     2.887000000    -4.900000000
H     0.864000000     3.805000000    -5.110000000
H    -0.350000000     2.775000000    -5.763000000
C     1.244000000     1.729000000    -4.610000000
C     2.436000000     2.059000000    -3.980000000
H     2.749000000     3.100000000    -3.955000000
C     0.926000000     0.374000000    -4.820000000
C     1.710000000    -0.620000000    -4.179000000
H     1.266000000    -1.613000000    -4.174000000
C     2.866000000    -0.272000000    -3.516000000
O     3.586000000    -1.357000000    -3.040000000
C     3.612000000    -1.613000000    -1.619000000
C     3.333000000    -3.045000000    -1.213000000
C     2.793000000    -3.968000000    -2.157000000
H     2.719000000    -3.617000000    -3.183000000
C     3.450000000    -3.324000000     0.171000000
H     3.787000000    -2.526000000     0.827000000
O     4.844000000    -1.092000000    -1.062000000
H     2.740000000    -1.145000000    -1.138000000
C     3.186000000     1.062000000    -3.384000000
C     4.517000000     1.457000000    -2.736000000
H     4.963000000     2.396000000    -3.070000000
H     5.232000000     0.732000000    -3.131000000
C     4.475000000     1.393000000    -1.244000000
C     4.686000000     0.170000000    -0.487000000
C     4.616000000     0.255000000     0.910000000
H     4.814000000    -0.595000000     1.558000000
C     4.409000000     1.470000000     1.513000000
O     3.925000000     1.328000000     2.859000000
C     2.542000000     1.398000000     3.184000000
H     2.001000000     1.165000000     2.255000000
C     2.260000000     0.418000000     4.333000000
C     1.018000000     0.394000000     4.858000000
H     0.316000000     1.121000000     4.459000000
C     3.169000000    -0.529000000     4.819000000
H     4.180000000    -0.599000000     4.427000000
C     2.750000000    -1.499000000     5.781000000
O     3.662000000    -2.534000000     6.042000000
C     1.447000000    -1.569000000     6.199000000
H     1.114000000    -2.283000000     6.948000000
C     0.574000000    -0.606000000     5.800000000
O    -0.733000000    -0.639000000     6.217000000
C    -1.588000000     0.476000000     6.382000000
C    -2.882000000     0.470000000     5.739000000
H    -3.338000000    -0.406000000     5.283000000
C    -1.268000000     1.550000000     7.221000000
H    -0.323000000     1.563000000     7.759000000
C    -2.035000000     2.687000000     7.259000000
H    -1.779000000     3.583000000     7.820000000
C    -3.133000000     2.781000000     6.461000000
H    -3.675000000     3.723000000     6.454000000
C    -3.661000000     1.634000000     5.749000000
O    -4.802000000     1.694000000     5.029000000
C    -4.780000000     1.700000000     3.611000000
C    -5.785000000     1.081000000     2.881000000
H    -6.579000000     0.590000000     3.439000000
C    -5.849000000     1.232000000     1.516000000
O    -6.930000000     0.633000000     0.849000000
C    -7.006000000     0.518000000    -0.504000000
C    -6.394000000    -0.514000000    -1.102000000
H    -5.848000000    -1.195000000    -0.454000000
C    -7.661000000     1.453000000    -1.264000000
H    -8.087000000     2.341000000    -0.805000000
C    -7.805000000     1.346000000    -2.631000000
H    -8.280000000     2.120000000    -3.227000000
C    -7.201000000     0.193000000    -3.264000000
H    -7.306000000     0.053000000    -4.337000000
C    -6.398000000    -0.653000000    -2.509000000
O    -5.694000000    -1.724000000    -3.111000000
C    -4.406000000    -1.819000000    -3.547000000
C    -3.950000000    -3.061000000    -3.898000000
H    -4.608000000    -3.925000000    -3.836000000
C    -2.616000000    -3.266000000    -4.377000000
O    -2.221000000    -4.587000000    -4.462000000
C    -0.928000000    -5.070000000    -4.652000000
C    -0.201000000    -5.495000000    -3.552000000
H    -0.644000000    -5.317000000    -2.576000000
C    -0.477000000    -5.521000000    -5.871000000
H    -1.117000000    -5.496000000    -6.749000000
C     0.812000000    -6.017000000    -6.016000000
H     1.261000000    -6.173000000    -6.994000000
C     1.558000000    -6.268000000    -4.893000000
H     2.594000000    -6.596000000    -4.929000000
C     1.078000000    -5.999000000    -3.637000000
O     1.812000000    -6.133000000    -2.475000000
C     2.331000000    -5.164000000    -1.676000000
C     2.463000000    -5.391000000    -0.330000000
H     2.014000000    -6.303000000     0.057000000
C     2.988000000    -4.575000000     0.638000000
O     2.854000000    -4.966000000     1.942000000
C     3.685000000    -4.639000000     3.021000000
C     5.042000000    -5.028000000     2.994000000
H     5.448000000    -5.590000000     2.157000000
C     5.905000000    -4.507000000     3.926000000
H     6.947000000    -4.784000000     4.063000000
C     5.387000000    -3.727000000     4.961000000
H     6.066000000    -3.350000000     5.721000000
C     4.038000000    -3.387000000     5.022000000
C     3.180000000    -3.823000000     4.054000000
H     2.123000000    -3.567000000     4.059000000
C     0.194000000    -2.287000000     0.134000000
H     0.618000000    -2.992000000    -0.577000000
C     0.178000000    -0.990000000    -0.400000000
H     0.482000000    -0.744000000    -1.414000000
C    -0.152000000     0.057000000     0.423000000
H     0.013000000     1.048000000     0.088000000
C    -0.600000000    -0.170000000     1.728000000
H    -0.824000000     0.640000000     2.417000000
C    -0.698000000    -1.448000000     2.230000000
H    -1.093000000    -1.734000000     3.201000000
C    -0.431000000    -2.576000000     1.371000000
C    -0.617000000    -3.999000000     1.892000000
O    -1.031000000    -4.181000000     3.048000000
O    -0.534000000    -4.903000000     1.090000000
O    -0.135000000    -4.687000000     5.866000000
H     0.110000000    -5.611000000     5.817000000
H    -0.420000000    -4.468000000     4.978000000
O    -5.151000000    -2.768000000     6.224000000
H    -4.392000000    -2.482000000     5.716000000
H    -5.288000000    -2.070000000     6.865000000
O    -3.439000000    -1.338000000     0.640000000
H    -2.504000000    -1.494000000     0.508000000
H    -3.540000000    -0.391000000     0.546000000
O    -6.560000000    -5.923000000     3.689000000
H    -6.768000000    -5.357000000     4.432000000
H    -5.623000000    -5.791000000     3.543000000
O    -4.569000000    -2.134000000     3.127000000
H    -3.916000000    -2.421000000     3.766000000
H    -4.065000000    -1.949000000     2.335000000
O    -4.525000000    -7.700000000     1.283000000
H    -4.976000000    -8.492000000     1.576000000
H    -3.988000000    -7.439000000     2.031000000
O     2.846000000    -8.317000000     1.957000000
H     3.177000000    -8.159000000     1.073000000
H     2.981000000    -9.254000000     2.100000000
O    -4.451000000    -4.065000000     0.863000000
H    -4.413000000    -3.185000000     1.239000000
H    -4.401000000    -4.651000000     1.618000000
O    -2.597000000    -2.823000000     4.823000000
H    -2.034000000    -2.593000000     5.563000000
H    -1.989000000    -3.062000000     4.124000000
O     0.581000000    -7.289000000     5.311000000
H     0.182000000    -7.511000000     4.470000000
H     1.522000000    -7.377000000     5.161000000
O     0.045000000    -6.974000000     2.608000000
H     0.621000000    -7.376000000     1.958000000
H    -0.111000000    -6.090000000     2.276000000
O     3.166000000    -7.543000000     4.593000000
H     3.677000000    -6.733000000     4.601000000
H     2.978000000    -7.698000000     3.667000000
O    -2.431000000    -5.615000000    -0.422000000
H    -1.777000000    -5.392000000     0.240000000
H    -3.172000000    -5.041000000    -0.231000000
O    -3.836000000    -6.651000000    -2.746000000
H    -3.379000000    -7.477000000    -2.906000000
H    -3.349000000    -6.244000000    -2.029000000
O    -1.778000000    -4.045000000     7.858000000
H    -1.481000000    -3.610000000     8.657000000
H    -0.980000000    -4.406000000     7.471000000
O    -2.520000000    -8.322000000     3.464000000
H    -2.445000000    -7.727000000     4.210000000
H    -1.721000000    -8.171000000     2.958000000
O    -2.823000000    -7.126000000     6.326000000
H    -3.280000000    -6.366000000     6.689000000
H    -1.913000000    -7.011000000     6.599000000
O    -1.527000000    -8.277000000    -0.784000000
H    -2.484000000    -8.300000000    -0.763000000
H    -1.304000000    -7.375000000    -0.553000000
O    -3.813000000    -5.304000000     3.418000000
H    -3.672000000    -4.670000000     4.122000000
H    -2.972000000    -5.347000000     2.963000000
