215
-1460.24125
C    -3.957000000     3.358000000     0.599000000
H    -3.899000000     3.294000000    -0.484000000
C    -2.825000000     3.694000000     1.348000000
C    -2.876000000     3.683000000     2.739000000
H    -2.077000000     4.011000000     3.399000000
C    -1.468000000     3.964000000     0.685000000
O    -1.659000000     4.781000000    -0.532000000
H    -1.133000000     2.947000000     0.435000000
O    -0.605000000     4.629000000     1.603000000
C     0.751000000     4.174000000     1.476000000
C     1.280000000     3.445000000     2.496000000
H     0.642000000     3.311000000     3.366000000
C     2.583000000     3.004000000     2.455000000
O     2.935000000     2.125000000     3.455000000
C     3.343000000     3.200000000     1.311000000
C     4.728000000     2.596000000     1.143000000
H     5.310000000     3.303000000     0.548000000
C     4.650000000     1.201000000     0.618000000
C     4.812000000     0.968000000    -0.714000000
H     4.984000000     1.829000000    -1.354000000
H     5.202000000     2.500000000     2.122000000
C     2.828000000     3.984000000     0.248000000
H     3.472000000     4.221000000    -0.595000000
C     1.534000000     4.553000000     0.329000000
C     1.113000000     5.271000000    -0.895000000
H     1.973000000     5.755000000    -1.362000000
H     0.465000000     6.089000000    -0.573000000
C     0.332000000     4.424000000    -1.780000000
C     0.977000000     3.892000000    -2.902000000
H     2.054000000     3.892000000    -3.049000000
C    -1.058000000     4.344000000    -1.691000000
C    -1.743000000     3.562000000    -2.641000000
H    -2.812000000     3.367000000    -2.678000000
C    -1.089000000     2.926000000    -3.670000000
O    -1.731000000     1.931000000    -4.361000000
C    -1.500000000     0.518000000    -3.833000000
C    -2.716000000    -0.327000000    -3.868000000
C    -2.673000000    -1.682000000    -4.234000000
H    -1.715000000    -2.056000000    -4.586000000
C    -3.922000000     0.267000000    -3.789000000
H    -4.131000000     1.301000000    -3.524000000
O    -0.500000000    -0.119000000    -4.701000000
H    -1.263000000     0.540000000    -2.759000000
C     0.291000000     3.076000000    -3.798000000
C     1.190000000     2.226000000    -4.729000000
H     2.042000000     2.871000000    -4.956000000
H     0.642000000     2.298000000    -5.671000000
C     1.620000000     0.873000000    -4.321000000
C     2.985000000     0.758000000    -3.947000000
H     3.644000000     1.622000000    -3.951000000
C     0.829000000    -0.228000000    -4.426000000
C     1.241000000    -1.410000000    -3.842000000
H     0.623000000    -2.304000000    -3.835000000
C     2.497000000    -1.569000000    -3.326000000
O     2.823000000    -2.761000000    -2.717000000
C     2.738000000    -2.783000000    -1.310000000
C     2.088000000    -4.103000000    -0.832000000
C     0.986000000    -4.557000000    -1.549000000
H     0.751000000    -4.140000000    -2.525000000
C     2.389000000    -4.620000000     0.445000000
H     3.273000000    -4.276000000     0.975000000
O     4.037000000    -2.605000000    -0.827000000
H     2.159000000    -1.948000000    -0.889000000
C     3.379000000    -0.441000000    -3.307000000
C     4.741000000    -0.541000000    -2.709000000
H     5.468000000     0.178000000    -3.091000000
H     5.257000000    -1.489000000    -2.876000000
C     4.625000000    -0.324000000    -1.222000000
C     4.369000000    -1.378000000    -0.405000000
C     4.182000000    -1.245000000     0.962000000
H     3.855000000    -2.096000000     1.554000000
C     4.401000000     0.044000000     1.454000000
O     4.177000000     0.261000000     2.746000000
C     2.872000000     0.717000000     3.102000000
H     2.180000000     0.500000000     2.275000000
C     2.385000000    -0.096000000     4.278000000
C     1.197000000     0.365000000     4.896000000
H     0.769000000     1.324000000     4.612000000
C     2.818000000    -1.396000000     4.653000000
H     3.721000000    -1.852000000     4.255000000
C     2.133000000    -2.148000000     5.622000000
O     2.639000000    -3.397000000     5.936000000
C     0.972000000    -1.684000000     6.259000000
H     0.333000000    -2.294000000     6.892000000
C     0.487000000    -0.410000000     5.861000000
O    -0.818000000    -0.112000000     6.309000000
C    -1.346000000     1.180000000     6.266000000
C    -2.461000000     1.390000000     5.524000000
H    -3.004000000     0.552000000     5.096000000
C    -0.784000000     2.220000000     7.011000000
H     0.004000000     1.885000000     7.680000000
C    -1.185000000     3.521000000     6.910000000
H    -0.757000000     4.387000000     7.407000000
C    -2.325000000     3.767000000     6.147000000
H    -2.577000000     4.822000000     6.069000000
C    -2.911000000     2.726000000     5.407000000
O    -4.045000000     3.055000000     4.723000000
C    -4.004000000     3.174000000     3.369000000
C    -5.132000000     2.730000000     2.634000000
H    -6.056000000     2.415000000     3.113000000
C    -5.106000000     2.930000000     1.198000000
O    -6.187000000     2.496000000     0.489000000
C    -6.389000000     2.584000000    -0.889000000
C    -6.429000000     1.408000000    -1.582000000
H    -6.343000000     0.446000000    -1.082000000
C    -6.396000000     3.828000000    -1.568000000
H    -6.303000000     4.719000000    -0.952000000
C    -6.388000000     3.809000000    -2.962000000
H    -6.273000000     4.751000000    -3.492000000
C    -6.323000000     2.612000000    -3.633000000
H    -6.364000000     2.678000000    -4.717000000
C    -6.422000000     1.428000000    -2.941000000
O    -6.271000000     0.213000000    -3.588000000
C    -5.064000000    -0.463000000    -3.828000000
C    -5.082000000    -1.788000000    -3.975000000
H    -6.003000000    -2.352000000    -3.854000000
C    -3.875000000    -2.477000000    -4.167000000
O    -3.841000000    -3.797000000    -4.553000000
C    -2.768000000    -4.644000000    -4.465000000
C    -2.336000000    -4.987000000    -3.185000000
H    -2.905000000    -4.688000000    -2.308000000
C    -2.033000000    -5.063000000    -5.562000000
H    -2.383000000    -4.755000000    -6.544000000
C    -0.915000000    -5.895000000    -5.359000000
H    -0.315000000    -6.256000000    -6.190000000
C    -0.442000000    -6.133000000    -4.059000000
H     0.519000000    -6.614000000    -3.895000000
C    -1.194000000    -5.712000000    -2.956000000
O    -0.895000000    -6.076000000    -1.655000000
C     0.261000000    -5.630000000    -0.991000000
C     0.525000000    -6.110000000     0.265000000
H    -0.102000000    -6.817000000     0.803000000
C     1.664000000    -5.656000000     0.940000000
O     1.972000000    -6.147000000     2.221000000
C     2.903000000    -5.568000000     3.000000000
C     4.262000000    -5.931000000     2.943000000
H     4.631000000    -6.704000000     2.273000000
C     5.053000000    -5.286000000     3.906000000
H     6.133000000    -5.401000000     3.892000000
C     4.495000000    -4.466000000     4.906000000
H     5.154000000    -4.015000000     5.644000000
C     3.156000000    -4.186000000     4.928000000
C     2.351000000    -4.830000000     4.035000000
H     1.291000000    -4.896000000     4.269000000
C    -0.735000000    -2.176000000     0.407000000
H    -0.723000000    -3.057000000    -0.229000000
C    -0.518000000    -0.954000000    -0.257000000
H    -0.298000000    -1.038000000    -1.319000000
C    -0.470000000     0.236000000     0.473000000
H    -0.104000000     1.234000000     0.042000000
C    -0.793000000     0.224000000     1.849000000
H    -0.774000000     1.181000000     2.365000000
C    -1.090000000    -0.973000000     2.514000000
H    -1.458000000    -0.937000000     3.536000000
C    -0.975000000    -2.187000000     1.813000000
C    -1.101000000    -3.472000000     2.605000000
O    -1.103000000    -3.401000000     3.821000000
O    -1.323000000    -4.487000000     2.041000000
O    -0.771000000    -4.640000000     6.065000000
H    -0.192000000    -5.397000000     5.969000000
H    -0.775000000    -4.229000000     5.201000000
O    -3.547000000    -1.594000000    -0.108000000
H    -2.711000000    -1.950000000     0.196000000
H    -3.304000000    -0.840000000    -0.646000000
O    -6.062000000    -3.659000000     6.041000000
H    -6.458000000    -4.508000000     6.236000000
H    -5.238000000    -3.873000000     5.603000000
O    -3.770000000    -4.908000000     5.879000000
H    -3.317000000    -5.742000000     6.002000000
H    -3.115000000    -4.245000000     6.097000000
O    -4.354000000    -0.818000000     2.500000000
H    -4.157000000    -0.738000000     1.566000000
H    -4.304000000    -1.758000000     2.676000000
O    -4.682000000    -1.012000000     6.996000000
H    -4.808000000    -1.923000000     6.734000000
H    -3.776000000    -0.974000000     7.304000000
O    -3.910000000    -3.597000000     3.113000000
H    -3.189000000    -4.028000000     2.653000000
H    -3.489000000    -3.136000000     3.838000000
O     1.815000000    -5.819000000     7.235000000
H     1.252000000    -5.048000000     7.158000000
H     1.368000000    -6.493000000     6.721000000
O    -2.748000000    -2.327000000     5.613000000
H    -2.419000000    -1.533000000     6.035000000
H    -2.008000000    -2.651000000     5.100000000
O     0.458000000    -7.215000000     5.442000000
H    -0.073000000    -7.299000000     4.649000000
H     1.034000000    -7.979000000     5.426000000
O    -1.380000000    -7.040000000     3.396000000
H    -1.206000000    -7.822000000     2.872000000
H    -1.204000000    -6.310000000     2.803000000
O    -2.720000000    -6.213000000     0.740000000
H    -2.120000000    -5.627000000     1.201000000
H    -2.186000000    -6.606000000     0.049000000
O    -5.916000000    -2.974000000     0.323000000
H    -5.942000000    -2.854000000     1.272000000
H    -5.127000000    -2.510000000     0.044000000
O    -1.978000000    -4.823000000     8.661000000
H    -1.376000000    -4.282000000     9.172000000
H    -1.656000000    -4.756000000     7.762000000
O    -4.063000000    -8.397000000     2.153000000
H    -4.526000000    -7.731000000     2.661000000
H    -3.662000000    -7.912000000     1.432000000
O    -3.364000000    -7.802000000     4.871000000
H    -2.520000000    -7.530000000     4.511000000
H    -3.785000000    -8.281000000     4.157000000
O    -5.478000000    -6.125000000     3.741000000
H    -5.243000000    -5.270000000     3.381000000
H    -5.126000000    -6.115000000     4.631000000
O    -0.440000000    -9.033000000     1.754000000
H     0.491000000    -9.160000000     1.939000000
H    -0.827000000    -9.901000000     1.863000000
O    -5.056000000    -5.634000000    -0.398000000
H    -5.336000000    -4.807000000    -0.004000000
H    -4.208000000    -5.816000000     0.007000000
