215
-1413.85733
C    -4.800000000     1.529000000     1.146000000
H    -4.997000000     1.600000000     0.080000000
C    -3.913000000     2.448000000     1.733000000
C    -3.633000000     2.247000000     3.070000000
H    -2.998000000     2.856000000     3.708000000
C    -2.804000000     3.122000000     0.956000000
O    -3.326000000     3.683000000    -0.313000000
H    -2.136000000     2.279000000     0.725000000
O    -2.161000000     4.142000000     1.693000000
C    -0.788000000     4.353000000     1.516000000
C     0.056000000     3.882000000     2.523000000
H    -0.367000000     3.443000000     3.424000000
C     1.436000000     3.978000000     2.479000000
O     2.162000000     3.168000000     3.390000000
C     2.029000000     4.412000000     1.268000000
C     3.500000000     4.232000000     0.937000000
H     3.849000000     5.056000000     0.310000000
C     3.775000000     2.841000000     0.297000000
C     3.860000000     2.626000000    -1.070000000
H     3.707000000     3.462000000    -1.749000000
H     4.040000000     4.413000000     1.869000000
C     1.196000000     4.772000000     0.243000000
H     1.740000000     5.049000000    -0.656000000
C    -0.218000000     4.827000000     0.362000000
C    -0.971000000     5.378000000    -0.879000000
H    -0.378000000     6.000000000    -1.552000000
H    -1.782000000     6.044000000    -0.577000000
C    -1.534000000     4.328000000    -1.758000000
C    -0.788000000     4.049000000    -2.907000000
H     0.150000000     4.547000000    -3.139000000
C    -2.564000000     3.468000000    -1.451000000
C    -2.933000000     2.403000000    -2.273000000
H    -3.684000000     1.751000000    -1.834000000
C    -2.132000000     2.156000000    -3.422000000
O    -2.537000000     1.089000000    -4.221000000
C    -1.647000000    -0.077000000    -4.117000000
C    -2.544000000    -1.332000000    -3.888000000
C    -2.090000000    -2.666000000    -4.077000000
H    -1.049000000    -2.709000000    -4.386000000
C    -3.916000000    -1.181000000    -3.512000000
H    -4.364000000    -0.226000000    -3.251000000
O    -0.702000000    -0.170000000    -5.209000000
H    -1.060000000     0.110000000    -3.205000000
C    -1.027000000     2.904000000    -3.760000000
C    -0.168000000     2.659000000    -4.992000000
H     0.306000000     3.620000000    -5.205000000
H    -0.815000000     2.501000000    -5.857000000
C     0.868000000     1.558000000    -4.745000000
C     2.059000000     1.892000000    -4.171000000
H     2.281000000     2.943000000    -4.007000000
C     0.627000000     0.209000000    -4.952000000
C     1.557000000    -0.788000000    -4.499000000
H     1.245000000    -1.829000000    -4.518000000
C     2.732000000    -0.451000000    -3.859000000
O     3.414000000    -1.497000000    -3.185000000
C     3.357000000    -1.580000000    -1.764000000
C     3.156000000    -3.007000000    -1.232000000
C     2.529000000    -3.949000000    -2.077000000
H     2.272000000    -3.771000000    -3.119000000
C     3.295000000    -3.312000000     0.107000000
H     3.711000000    -2.600000000     0.815000000
O     4.563000000    -0.999000000    -1.288000000
H     2.603000000    -0.992000000    -1.221000000
C     2.960000000     0.921000000    -3.728000000
C     4.314000000     1.297000000    -3.127000000
H     4.504000000     2.302000000    -3.510000000
H     5.181000000     0.713000000    -3.443000000
C     4.226000000     1.376000000    -1.654000000
C     4.442000000     0.297000000    -0.816000000
C     4.400000000     0.544000000     0.610000000
H     4.600000000    -0.279000000     1.291000000
C     4.122000000     1.804000000     1.106000000
O     4.002000000     1.870000000     2.476000000
C     2.597000000     1.775000000     3.099000000
H     1.929000000     1.480000000     2.276000000
C     2.501000000     0.900000000     4.338000000
C     1.371000000     0.895000000     5.148000000
H     0.596000000     1.639000000     4.982000000
C     3.528000000    -0.027000000     4.640000000
H     4.464000000    -0.045000000     4.087000000
C     3.280000000    -0.992000000     5.637000000
O     4.207000000    -2.059000000     5.777000000
C     2.141000000    -0.976000000     6.430000000
H     2.058000000    -1.681000000     7.253000000
C     1.143000000     0.008000000     6.176000000
O     0.043000000     0.036000000     7.036000000
C    -0.980000000     0.940000000     6.942000000
C    -2.092000000     0.613000000     6.178000000
H    -2.227000000    -0.382000000     5.762000000
C    -0.701000000     2.267000000     7.281000000
H     0.239000000     2.664000000     7.655000000
C    -1.687000000     3.244000000     7.048000000
H    -1.502000000     4.296000000     7.249000000
C    -2.839000000     2.906000000     6.368000000
H    -3.575000000     3.611000000     5.993000000
C    -2.964000000     1.629000000     5.835000000
O    -4.090000000     1.168000000     5.099000000
C    -4.282000000     1.286000000     3.761000000
C    -5.195000000     0.429000000     3.138000000
H    -5.578000000    -0.403000000     3.725000000
C    -5.530000000     0.515000000     1.821000000
O    -6.482000000    -0.354000000     1.312000000
C    -6.752000000    -0.338000000    -0.053000000
C    -6.253000000    -1.345000000    -0.819000000
H    -5.699000000    -2.152000000    -0.348000000
C    -7.433000000     0.734000000    -0.620000000
H    -7.780000000     1.531000000     0.034000000
C    -7.588000000     0.814000000    -1.984000000
H    -7.929000000     1.673000000    -2.557000000
C    -7.155000000    -0.254000000    -2.770000000
H    -7.207000000    -0.227000000    -3.855000000
C    -6.466000000    -1.287000000    -2.221000000
O    -6.013000000    -2.226000000    -3.088000000
C    -4.707000000    -2.319000000    -3.456000000
C    -4.208000000    -3.576000000    -3.658000000
H    -4.834000000    -4.458000000    -3.551000000
C    -2.839000000    -3.771000000    -3.872000000
O    -2.450000000    -5.057000000    -4.169000000
C    -1.159000000    -5.362000000    -4.324000000
C    -0.382000000    -5.543000000    -3.202000000
H    -0.750000000    -5.416000000    -2.188000000
C    -0.622000000    -5.545000000    -5.600000000
H    -1.289000000    -5.439000000    -6.451000000
C     0.740000000    -5.846000000    -5.780000000
H     1.175000000    -6.000000000    -6.765000000
C     1.505000000    -6.067000000    -4.614000000
H     2.542000000    -6.389000000    -4.658000000
C     0.924000000    -5.932000000    -3.397000000
O     1.747000000    -6.211000000    -2.323000000
C     2.279000000    -5.205000000    -1.575000000
C     2.436000000    -5.491000000    -0.243000000
H     2.284000000    -6.497000000     0.140000000
C     2.964000000    -4.539000000     0.650000000
O     3.257000000    -4.798000000     2.011000000
C     4.112000000    -4.095000000     2.772000000
C     5.478000000    -3.995000000     2.399000000
H     5.840000000    -4.438000000     1.475000000
C     6.466000000    -3.487000000     3.240000000
H     7.516000000    -3.432000000     2.965000000
C     6.006000000    -2.786000000     4.353000000
H     6.675000000    -2.272000000     5.038000000
C     4.665000000    -2.814000000     4.723000000
C     3.762000000    -3.617000000     4.002000000
H     2.748000000    -3.693000000     4.386000000
C    -0.140000000    -2.522000000    -0.042000000
H    -0.323000000    -3.254000000    -0.824000000
C     0.215000000    -1.232000000    -0.389000000
H     0.320000000    -1.040000000    -1.453000000
C     0.249000000    -0.167000000     0.531000000
H     0.615000000     0.815000000     0.167000000
C     0.036000000    -0.524000000     1.860000000
H     0.089000000     0.264000000     2.607000000
C    -0.223000000    -1.843000000     2.269000000
H    -0.419000000    -2.073000000     3.313000000
C    -0.324000000    -2.801000000     1.362000000
C    -0.779000000    -4.168000000     1.766000000
O    -0.995000000    -4.443000000     2.921000000
O    -1.109000000    -4.955000000     0.877000000
O    -0.311000000    -4.969000000     6.057000000
H    -1.079000000    -4.611000000     5.611000000
H     0.305000000    -5.165000000     5.351000000
O    -2.796000000    -1.300000000     0.186000000
H    -3.202000000    -1.183000000     1.045000000
H    -1.930000000    -0.903000000     0.274000000
O    -6.256000000    -8.266000000     2.145000000
H    -6.640000000    -8.858000000     1.499000000
H    -5.314000000    -8.314000000     1.983000000
O    -5.748000000    -3.575000000     4.906000000
H    -5.132000000    -3.275000000     5.576000000
H    -5.196000000    -3.800000000     4.157000000
O    -3.474000000    -9.379000000     0.890000000
H    -3.156000000    -9.826000000     1.675000000
H    -3.197000000    -9.941000000     0.166000000
O     2.701000000    -8.866000000     1.843000000
H     2.849000000    -9.726000000     1.451000000
H     1.767000000    -8.701000000     1.715000000
O     1.808000000    -5.695000000     7.690000000
H     1.235000000    -6.225000000     8.244000000
H     1.504000000    -5.866000000     6.799000000
O    -3.494000000    -7.096000000    -1.390000000
H    -3.462000000    -6.257000000    -0.930000000
H    -3.784000000    -6.874000000    -2.274000000
O    -3.765000000    -4.319000000     3.315000000
H    -3.532000000    -5.203000000     3.030000000
H    -2.927000000    -3.863000000     3.390000000
O    -5.952000000    -5.190000000     0.666000000
H    -5.477000000    -4.716000000    -0.017000000
H    -5.285000000    -5.731000000     1.090000000
O     1.122000000    -5.420000000     3.943000000
H     1.606000000    -5.475000000     3.119000000
H     0.312000000    -4.962000000     3.716000000
O     2.456000000    -7.312000000     5.284000000
H     2.442000000    -7.515000000     4.349000000
H     2.765000000    -6.407000000     5.328000000
O    -0.608000000    -7.499000000    -0.172000000
H    -0.494000000    -6.739000000     0.399000000
H    -1.325000000    -7.254000000    -0.757000000
O    -2.055000000    -9.142000000    -2.542000000
H    -2.285000000    -9.959000000    -2.100000000
H    -2.597000000    -8.478000000    -2.116000000
O    -1.730000000    -4.106000000     8.393000000
H    -1.370000000    -3.318000000     8.798000000
H    -1.097000000    -4.337000000     7.714000000
O     0.706000000    -8.993000000    -2.817000000
H    -0.248000000    -9.069000000    -2.792000000
H     0.904000000    -8.268000000    -2.224000000
O    -3.691000000    -6.490000000     1.594000000
H    -2.796000000    -6.163000000     1.690000000
H    -3.586000000    -7.386000000     1.275000000
O     0.528000000   -10.117000000     0.511000000
H     0.552000000   -10.769000000    -0.189000000
H     0.179000000    -9.330000000     0.093000000
O    -3.586000000    -4.298000000    -0.509000000
H    -3.396000000    -3.366000000    -0.621000000
H    -2.799000000    -4.655000000    -0.098000000
