215
-1467.20038
C    -4.646000000     1.605000000     1.864000000
H    -4.867000000     1.661000000     0.801000000
C    -3.580000000     2.368000000     2.369000000
C    -3.332000000     2.383000000     3.749000000
H    -2.612000000     3.040000000     4.229000000
C    -2.679000000     3.176000000     1.393000000
O    -3.379000000     3.590000000     0.155000000
H    -1.921000000     2.483000000     0.999000000
O    -1.984000000     4.273000000     1.979000000
C    -0.691000000     4.262000000     1.742000000
C     0.167000000     3.580000000     2.576000000
H    -0.104000000     3.152000000     3.538000000
C     1.550000000     3.620000000     2.278000000
O     2.360000000     2.955000000     3.136000000
C     2.031000000     4.250000000     1.126000000
C     3.426000000     4.137000000     0.737000000
H     3.783000000     4.911000000     0.054000000
C     3.809000000     2.830000000     0.044000000
C     3.881000000     2.848000000    -1.376000000
H     3.511000000     3.670000000    -1.983000000
H     4.074000000     4.326000000     1.596000000
C     1.138000000     4.851000000     0.217000000
H     1.540000000     5.284000000    -0.695000000
C    -0.252000000     4.891000000     0.529000000
C    -1.199000000     5.520000000    -0.506000000
H    -0.639000000     6.131000000    -1.216000000
H    -2.015000000     6.133000000    -0.117000000
C    -1.760000000     4.443000000    -1.462000000
C    -1.035000000     4.225000000    -2.631000000
H    -0.115000000     4.767000000    -2.833000000
C    -2.776000000     3.494000000    -1.086000000
C    -3.175000000     2.541000000    -1.983000000
H    -4.028000000     1.894000000    -1.793000000
C    -2.510000000     2.413000000    -3.164000000
O    -2.789000000     1.286000000    -3.958000000
C    -2.011000000     0.152000000    -3.646000000
C    -2.794000000    -1.120000000    -3.396000000
C    -2.263000000    -2.354000000    -3.810000000
H    -1.238000000    -2.453000000    -4.157000000
C    -4.051000000    -1.123000000    -2.688000000
H    -4.429000000    -0.172000000    -2.321000000
O    -1.168000000    -0.097000000    -4.766000000
H    -1.406000000     0.309000000    -2.741000000
C    -1.388000000     3.194000000    -3.491000000
C    -0.631000000     2.865000000    -4.755000000
H    -0.121000000     3.716000000    -5.210000000
H    -1.342000000     2.555000000    -5.524000000
C     0.445000000     1.766000000    -4.517000000
C     1.740000000     2.125000000    -4.120000000
H     1.985000000     3.180000000    -4.030000000
C     0.106000000     0.390000000    -4.689000000
C     1.061000000    -0.585000000    -4.384000000
H     0.802000000    -1.634000000    -4.506000000
C     2.369000000    -0.201000000    -4.150000000
O     3.216000000    -1.180000000    -3.704000000
C     3.358000000    -1.357000000    -2.254000000
C     3.305000000    -2.910000000    -1.959000000
C     2.776000000    -3.815000000    -2.839000000
H     2.517000000    -3.484000000    -3.841000000
C     3.605000000    -3.326000000    -0.656000000
H     3.848000000    -2.545000000     0.060000000
O     4.610000000    -0.772000000    -1.759000000
H     2.504000000    -0.908000000    -1.725000000
C     2.647000000     1.127000000    -3.924000000
C     4.075000000     1.561000000    -3.539000000
H     4.197000000     2.600000000    -3.854000000
H     4.846000000     0.922000000    -3.974000000
C     4.192000000     1.610000000    -1.981000000
C     4.495000000     0.481000000    -1.197000000
C     4.605000000     0.521000000     0.179000000
H     4.758000000    -0.348000000     0.814000000
C     4.297000000     1.725000000     0.776000000
O     4.145000000     1.669000000     2.218000000
C     2.793000000     1.561000000     2.743000000
H     2.177000000     1.246000000     1.888000000
C     2.743000000     0.595000000     3.873000000
C     1.648000000     0.654000000     4.749000000
H     0.956000000     1.493000000     4.767000000
C     3.541000000    -0.545000000     3.881000000
H     4.290000000    -0.564000000     3.093000000
C     3.544000000    -1.462000000     4.996000000
O     4.368000000    -2.539000000     5.120000000
C     2.464000000    -1.293000000     5.861000000
H     2.385000000    -2.050000000     6.636000000
C     1.505000000    -0.275000000     5.735000000
O     0.479000000    -0.245000000     6.656000000
C    -0.443000000     0.764000000     6.835000000
C    -1.699000000     0.645000000     6.223000000
H    -1.933000000    -0.181000000     5.556000000
C    -0.163000000     1.800000000     7.729000000
H     0.767000000     1.886000000     8.286000000
C    -1.178000000     2.707000000     8.068000000
H    -0.980000000     3.500000000     8.785000000
C    -2.404000000     2.655000000     7.476000000
H    -3.179000000     3.392000000     7.671000000
C    -2.635000000     1.631000000     6.509000000
O    -3.839000000     1.507000000     5.893000000
C    -3.966000000     1.453000000     4.598000000
C    -5.039000000     0.641000000     4.009000000
H    -5.624000000    -0.041000000     4.621000000
C    -5.392000000     0.732000000     2.722000000
O    -6.513000000     0.086000000     2.239000000
C    -6.677000000    -0.178000000     0.894000000
C    -6.041000000    -1.115000000     0.137000000
H    -5.388000000    -1.853000000     0.595000000
C    -7.510000000     0.716000000     0.193000000
H    -7.949000000     1.536000000     0.755000000
C    -7.812000000     0.612000000    -1.123000000
H    -8.365000000     1.368000000    -1.675000000
C    -7.270000000    -0.428000000    -1.804000000
H    -7.504000000    -0.434000000    -2.865000000
C    -6.409000000    -1.285000000    -1.227000000
O    -5.970000000    -2.409000000    -1.910000000
C    -4.758000000    -2.306000000    -2.580000000
C    -4.262000000    -3.456000000    -3.096000000
H    -4.860000000    -4.361000000    -3.020000000
C    -3.003000000    -3.523000000    -3.667000000
O    -2.542000000    -4.725000000    -4.169000000
C    -1.302000000    -4.997000000    -4.569000000
C    -0.239000000    -5.393000000    -3.688000000
H    -0.339000000    -5.260000000    -2.614000000
C    -1.133000000    -5.155000000    -5.931000000
H    -1.910000000    -4.718000000    -6.554000000
C     0.051000000    -5.651000000    -6.519000000
H     0.144000000    -5.816000000    -7.589000000
C     1.127000000    -5.965000000    -5.724000000
H     2.114000000    -6.281000000    -6.052000000
C     1.005000000    -5.791000000    -4.288000000
O     2.079000000    -6.025000000    -3.455000000
C     2.529000000    -5.127000000    -2.540000000
C     2.777000000    -5.530000000    -1.212000000
H     2.578000000    -6.561000000    -0.929000000
C     3.245000000    -4.645000000    -0.281000000
O     3.367000000    -4.968000000     1.062000000
C     4.271000000    -4.407000000     1.958000000
C     5.647000000    -4.595000000     1.722000000
H     6.030000000    -5.201000000     0.905000000
C     6.566000000    -3.987000000     2.562000000
H     7.619000000    -4.189000000     2.382000000
C     6.173000000    -3.329000000     3.766000000
H     6.951000000    -2.966000000     4.432000000
C     4.805000000    -3.242000000     4.015000000
C     3.871000000    -3.682000000     3.079000000
H     2.805000000    -3.525000000     3.224000000
C    -0.298000000    -2.594000000     0.133000000
H    -0.398000000    -3.513000000    -0.439000000
C    -0.447000000    -1.410000000    -0.575000000
H    -0.627000000    -1.421000000    -1.647000000
C    -0.374000000    -0.192000000     0.098000000
H    -0.519000000     0.721000000    -0.476000000
C    -0.140000000    -0.156000000     1.472000000
H    -0.029000000     0.829000000     1.919000000
C     0.086000000    -1.372000000     2.172000000
H     0.379000000    -1.359000000     3.219000000
C     0.007000000    -2.612000000     1.500000000
C     0.209000000    -3.990000000     2.189000000
O     0.385000000    -4.041000000     3.360000000
O    -0.080000000    -5.035000000     1.592000000
O     5.214000000    -5.798000000     6.182000000
H     4.548000000    -5.554000000     5.539000000
H     5.096000000    -6.740000000     6.305000000
O     2.250000000    -5.293000000     5.029000000
H     1.358000000    -5.171000000     5.355000000
H     2.201000000    -5.056000000     4.103000000
O    -1.211000000    -2.541000000     5.094000000
H    -0.893000000    -3.016000000     5.862000000
H    -0.816000000    -2.997000000     4.351000000
O    -2.865000000    -1.293000000     1.348000000
H    -2.976000000    -2.019000000     0.734000000
H    -1.917000000    -1.206000000     1.447000000
O    -5.352000000    -5.213000000     4.275000000
H    -5.088000000    -4.857000000     5.124000000
H    -4.530000000    -5.329000000     3.799000000
O    -3.783000000    -2.035000000     4.138000000
H    -3.538000000    -1.350000000     3.516000000
H    -2.949000000    -2.349000000     4.487000000
O     0.363000000    -7.688000000     0.643000000
H     0.077000000    -6.785000000     0.781000000
H     0.944000000    -7.870000000     1.381000000
O    -4.273000000    -4.332000000     0.577000000
H    -4.311000000    -4.907000000     1.341000000
H    -5.058000000    -4.551000000     0.074000000
O     0.412000000    -3.974000000     6.866000000
H     1.131000000    -3.879000000     7.491000000
H    -0.344000000    -4.209000000     7.404000000
O    -0.243000000    -7.060000000     3.519000000
H     0.468000000    -6.993000000     4.156000000
H    -0.223000000    -6.226000000     3.049000000
O     3.156000000    -4.506000000     7.615000000
H     3.925000000    -3.943000000     7.711000000
H     2.991000000    -4.527000000     6.672000000
O     1.692000000    -8.164000000     5.766000000
H     2.428000000    -8.738000000     5.552000000
H     2.006000000    -7.285000000     5.555000000
O    -0.438000000    -8.533000000    -2.456000000
H     0.002000000    -8.220000000    -1.666000000
H    -1.236000000    -8.007000000    -2.510000000
O    -4.634000000    -7.049000000     1.814000000
H    -3.757000000    -7.431000000     1.838000000
H    -5.112000000    -7.503000000     2.508000000
O    -2.832000000    -5.354000000     3.462000000
H    -2.629000000    -4.650000000     2.846000000
H    -2.000000000    -5.811000000     3.586000000
O    -2.208000000    -8.417000000     1.972000000
H    -1.993000000    -9.311000000     1.705000000
H    -1.372000000    -7.953000000     1.950000000
O    -1.974000000    -5.824000000    -0.454000000
H    -1.220000000    -5.596000000     0.091000000
H    -2.725000000    -5.455000000     0.011000000
O     2.537000000    -7.929000000     2.280000000
H     2.887000000    -7.118000000     1.912000000
H     3.311000000    -8.421000000     2.554000000
O    -2.353000000    -8.540000000     4.745000000
H    -2.737000000    -7.716000000     5.045000000
H    -1.614000000    -8.275000000     4.199000000
