215
-1439.58080
C    -4.124000000     2.541000000     1.618000000
H    -4.331000000     2.848000000     0.596000000
C    -2.952000000     2.942000000     2.149000000
C    -2.670000000     2.442000000     3.474000000
H    -1.705000000     2.659000000     3.926000000
C    -1.827000000     3.590000000     1.335000000
O    -2.382000000     4.369000000     0.237000000
H    -1.191000000     2.823000000     0.869000000
O    -0.945000000     4.411000000     2.178000000
C     0.406000000     4.203000000     2.038000000
C     1.095000000     3.438000000     2.937000000
H     0.621000000     2.986000000     3.805000000
C     2.402000000     3.104000000     2.715000000
O     2.967000000     2.181000000     3.586000000
C     3.120000000     3.618000000     1.630000000
C     4.525000000     3.109000000     1.438000000
H     4.856000000     3.892000000     0.752000000
C     4.561000000     1.828000000     0.592000000
C     4.519000000     1.923000000    -0.792000000
H     4.659000000     2.915000000    -1.215000000
H     5.208000000     3.062000000     2.289000000
C     2.427000000     4.460000000     0.758000000
H     2.817000000     4.963000000    -0.123000000
C     1.071000000     4.697000000     0.908000000
C     0.394000000     5.527000000    -0.185000000
H     1.052000000     6.306000000    -0.575000000
H    -0.329000000     6.190000000     0.295000000
C    -0.361000000     4.667000000    -1.180000000
C     0.179000000     4.462000000    -2.479000000
H     1.154000000     4.908000000    -2.661000000
C    -1.671000000     4.166000000    -0.944000000
C    -2.231000000     3.304000000    -1.871000000
H    -3.222000000     2.889000000    -1.705000000
C    -1.646000000     2.995000000    -3.094000000
O    -2.385000000     2.163000000    -3.955000000
C    -1.927000000     0.811000000    -3.955000000
C    -2.978000000    -0.284000000    -3.918000000
C    -2.730000000    -1.538000000    -4.478000000
H    -1.795000000    -1.799000000    -4.966000000
C    -4.177000000    -0.071000000    -3.189000000
H    -4.364000000     0.940000000    -2.835000000
O    -1.000000000     0.573000000    -5.036000000
H    -1.412000000     0.703000000    -2.989000000
C    -0.429000000     3.611000000    -3.403000000
C     0.204000000     3.158000000    -4.736000000
H     0.897000000     3.946000000    -5.038000000
H    -0.541000000     3.022000000    -5.522000000
C     0.960000000     1.891000000    -4.582000000
C     2.254000000     1.951000000    -4.001000000
H     2.614000000     2.934000000    -3.708000000
C     0.343000000     0.689000000    -4.772000000
C     1.185000000    -0.482000000    -4.670000000
H     0.737000000    -1.466000000    -4.782000000
C     2.508000000    -0.414000000    -4.183000000
O     3.044000000    -1.639000000    -3.699000000
C     2.980000000    -1.760000000    -2.253000000
C     2.452000000    -3.118000000    -1.884000000
C     1.839000000    -3.996000000    -2.835000000
H     1.962000000    -3.813000000    -3.899000000
C     2.230000000    -3.436000000    -0.579000000
H     2.516000000    -2.757000000     0.220000000
O     4.198000000    -1.567000000    -1.602000000
H     2.219000000    -1.043000000    -1.911000000
C     2.998000000     0.826000000    -3.719000000
C     4.413000000     0.952000000    -3.127000000
H     4.937000000     1.892000000    -3.308000000
H     4.973000000     0.104000000    -3.526000000
C     4.352000000     0.829000000    -1.625000000
C     4.453000000    -0.406000000    -0.919000000
C     4.519000000    -0.569000000     0.470000000
H     4.498000000    -1.494000000     1.041000000
C     4.499000000     0.583000000     1.240000000
O     4.309000000     0.446000000     2.641000000
C     3.054000000     0.774000000     3.236000000
H     2.313000000     0.507000000     2.468000000
C     2.907000000    -0.241000000     4.402000000
C     2.115000000     0.086000000     5.481000000
H     1.673000000     1.078000000     5.531000000
C     3.333000000    -1.531000000     4.310000000
H     3.823000000    -1.889000000     3.408000000
C     3.159000000    -2.409000000     5.405000000
O     3.645000000    -3.636000000     5.218000000
C     2.323000000    -2.113000000     6.473000000
H     2.050000000    -2.783000000     7.285000000
C     1.743000000    -0.844000000     6.469000000
O     0.867000000    -0.599000000     7.507000000
C    -0.109000000     0.360000000     7.277000000
C    -1.246000000     0.204000000     6.393000000
H    -1.353000000    -0.797000000     5.984000000
C     0.029000000     1.639000000     7.809000000
H     0.831000000     1.996000000     8.450000000
C    -0.835000000     2.679000000     7.536000000
H    -0.574000000     3.550000000     8.131000000
C    -1.931000000     2.491000000     6.712000000
H    -2.644000000     3.269000000     6.453000000
C    -2.111000000     1.201000000     6.163000000
O    -3.187000000     0.915000000     5.336000000
C    -3.566000000     1.602000000     4.109000000
C    -4.801000000     1.415000000     3.572000000
H    -5.487000000     0.778000000     4.124000000
C    -5.084000000     1.743000000     2.222000000
O    -6.323000000     1.337000000     1.697000000
C    -6.651000000     1.328000000     0.331000000
C    -6.295000000     0.255000000    -0.451000000
H    -5.566000000    -0.457000000    -0.074000000
C    -7.461000000     2.364000000    -0.197000000
H    -7.949000000     3.029000000     0.512000000
C    -7.757000000     2.357000000    -1.517000000
H    -8.532000000     2.996000000    -1.931000000
C    -7.321000000     1.306000000    -2.304000000
H    -7.637000000     1.233000000    -3.341000000
C    -6.609000000     0.239000000    -1.779000000
O    -6.341000000    -0.870000000    -2.525000000
C    -5.059000000    -1.094000000    -3.044000000
C    -4.840000000    -2.340000000    -3.691000000
H    -5.685000000    -3.023000000    -3.715000000
C    -3.605000000    -2.580000000    -4.308000000
O    -3.412000000    -3.717000000    -5.119000000
C    -2.286000000    -4.412000000    -5.265000000
C    -1.497000000    -4.912000000    -4.213000000
H    -1.841000000    -4.878000000    -3.182000000
C    -1.793000000    -4.645000000    -6.619000000
H    -2.439000000    -4.363000000    -7.448000000
C    -0.624000000    -5.294000000    -6.801000000
H    -0.306000000    -5.383000000    -7.837000000
C     0.235000000    -5.592000000    -5.766000000
H     1.188000000    -6.064000000    -5.988000000
C    -0.227000000    -5.433000000    -4.435000000
O     0.444000000    -5.938000000    -3.338000000
C     1.155000000    -5.139000000    -2.411000000
C     1.128000000    -5.510000000    -1.125000000
H     0.577000000    -6.355000000    -0.720000000
C     1.705000000    -4.639000000    -0.189000000
O     1.526000000    -4.798000000     1.120000000
C     2.513000000    -4.979000000     2.052000000
C     3.514000000    -5.862000000     1.757000000
H     3.540000000    -6.521000000     0.893000000
C     4.602000000    -6.063000000     2.640000000
H     5.390000000    -6.784000000     2.435000000
C     4.618000000    -5.339000000     3.837000000
H     5.453000000    -5.292000000     4.531000000
C     3.581000000    -4.436000000     4.134000000
C     2.488000000    -4.270000000     3.247000000
H     1.626000000    -3.626000000     3.400000000
C    -0.830000000    -1.966000000     0.010000000
H    -0.978000000    -2.837000000    -0.624000000
C    -0.191000000    -0.795000000    -0.517000000
H    -0.039000000    -0.730000000    -1.591000000
C     0.142000000     0.253000000     0.307000000
H     0.583000000     1.207000000    -0.155000000
C    -0.266000000     0.194000000     1.627000000
H    -0.073000000     1.054000000     2.264000000
C    -0.887000000    -0.914000000     2.192000000
H    -1.072000000    -0.948000000     3.263000000
C    -1.168000000    -2.030000000     1.373000000
C    -1.740000000    -3.336000000     1.936000000
O    -1.516000000    -3.569000000     3.074000000
O    -2.378000000    -4.091000000     1.250000000
O    -7.167000000    -3.152000000     1.719000000
H    -7.506000000    -3.986000000     1.393000000
H    -6.216000000    -3.260000000     1.712000000
O    -2.432000000    -7.913000000    -1.487000000
H    -3.030000000    -7.228000000    -1.787000000
H    -2.417000000    -7.818000000    -0.535000000
O    -0.476000000    -5.860000000     3.667000000
H     0.180000000    -6.059000000     2.999000000
H    -0.941000000    -5.096000000     3.326000000
O    -2.957000000    -4.132000000     5.152000000
H    -2.386000000    -3.720000000     5.800000000
H    -2.612000000    -3.840000000     4.308000000
O    -7.221000000    -3.452000000    -1.422000000
H    -6.804000000    -2.592000000    -1.475000000
H    -7.813000000    -3.386000000    -0.673000000
O    -4.386000000    -6.342000000    -2.973000000
H    -3.941000000    -5.614000000    -2.539000000
H    -5.291000000    -6.045000000    -3.072000000
O    -7.950000000    -0.838000000     2.698000000
H    -7.850000000    -1.719000000     2.339000000
H    -7.393000000    -0.289000000     2.145000000
O    -4.831000000    -0.821000000     6.470000000
H    -4.176000000    -0.198000000     6.156000000
H    -5.649000000    -0.535000000     6.063000000
O    -4.676000000    -4.467000000     2.357000000
H    -4.390000000    -4.340000000     3.261000000
H    -3.863000000    -4.566000000     1.860000000
O    -0.497000000    -8.251000000     4.795000000
H    -0.443000000    -7.333000000     4.529000000
H    -0.110000000    -8.735000000     4.065000000
O     0.431000000    -5.348000000     6.254000000
H     1.232000000    -5.363000000     5.730000000
H    -0.277000000    -5.393000000     5.611000000
O    -6.597000000    -6.727000000     1.798000000
H    -6.073000000    -5.936000000     1.926000000
H    -6.898000000    -6.960000000     2.676000000
O    -1.311000000    -3.047000000     6.941000000
H    -0.509000000    -3.515000000     6.709000000
H    -1.239000000    -2.901000000     7.884000000
O    -5.275000000    -9.212000000     1.087000000
H    -6.102000000    -8.754000000     1.232000000
H    -4.602000000    -8.555000000     1.266000000
O    -2.016000000    -7.049000000     1.139000000
H    -2.150000000    -6.139000000     1.407000000
H    -1.561000000    -7.451000000     1.879000000
O    -3.170000000    -4.368000000    -1.254000000
H    -3.891000000    -3.791000000    -1.003000000
H    -2.594000000    -4.379000000    -0.489000000
O    -0.104000000    -9.250000000     2.396000000
H     0.354000000    -8.987000000     1.597000000
H    -0.604000000   -10.025000000     2.141000000
O    -2.619000000    -6.752000000     6.197000000
H    -2.411000000    -7.035000000     5.306000000
H    -2.977000000    -5.871000000     6.090000000
O    -5.060000000    -3.521000000     6.919000000
H    -4.698000000    -3.812000000     6.082000000
H    -4.732000000    -2.629000000     7.026000000
