215
-1446.38795
C    -3.758000000     2.628000000     2.813000000
H    -4.027000000     2.971000000     1.817000000
C    -2.489000000     2.720000000     3.245000000
C    -1.954000000     2.245000000     4.446000000
H    -1.019000000     2.619000000     4.854000000
C    -1.483000000     3.358000000     2.265000000
O    -1.989000000     4.428000000     1.484000000
H    -1.108000000     2.518000000     1.663000000
O    -0.280000000     3.935000000     3.066000000
C     0.980000000     3.786000000     2.564000000
C     1.618000000     2.714000000     3.002000000
H     1.157000000     2.056000000     3.735000000
C     2.926000000     2.306000000     2.568000000
O     3.474000000     1.206000000     3.090000000
C     3.380000000     2.998000000     1.414000000
C     4.749000000     2.666000000     0.784000000
H     5.248000000     3.533000000     0.346000000
C     4.616000000     1.578000000    -0.211000000
C     4.447000000     1.890000000    -1.620000000
H     4.592000000     2.896000000    -2.005000000
H     5.412000000     2.394000000     1.608000000
C     2.621000000     3.954000000     0.767000000
H     3.009000000     4.256000000    -0.202000000
C     1.404000000     4.426000000     1.358000000
C     0.688000000     5.533000000     0.644000000
H     1.435000000     6.116000000     0.100000000
H     0.207000000     6.179000000     1.381000000
C    -0.292000000     4.924000000    -0.266000000
C     0.087000000     4.858000000    -1.583000000
H     1.075000000     5.217000000    -1.861000000
C    -1.537000000     4.484000000     0.122000000
C    -2.401000000     3.931000000    -0.816000000
H    -3.389000000     3.637000000    -0.472000000
C    -2.003000000     3.860000000    -2.154000000
O    -2.838000000     3.092000000    -3.017000000
C    -2.470000000     1.658000000    -3.247000000
C    -3.677000000     0.711000000    -3.060000000
C    -3.609000000    -0.590000000    -3.497000000
H    -2.673000000    -0.891000000    -3.962000000
C    -4.739000000     1.043000000    -2.269000000
H    -4.653000000     2.004000000    -1.770000000
O    -1.710000000     1.551000000    -4.509000000
H    -1.806000000     1.412000000    -2.405000000
C    -0.654000000     4.245000000    -2.565000000
C    -0.110000000     4.034000000    -4.016000000
H     0.524000000     4.809000000    -4.451000000
H    -1.001000000     4.177000000    -4.631000000
C     0.443000000     2.671000000    -4.153000000
C     1.836000000     2.540000000    -4.110000000
H     2.499000000     3.389000000    -3.967000000
C    -0.357000000     1.569000000    -4.502000000
C     0.233000000     0.295000000    -4.574000000
H    -0.393000000    -0.586000000    -4.693000000
C     1.575000000     0.103000000    -4.317000000
O     2.108000000    -1.173000000    -4.302000000
C     2.474000000    -1.713000000    -3.058000000
C     2.147000000    -3.170000000    -2.869000000
C     0.863000000    -3.574000000    -3.199000000
H     0.248000000    -2.949000000    -3.842000000
C     2.963000000    -4.033000000    -2.136000000
H     3.974000000    -3.734000000    -1.871000000
O     3.849000000    -1.471000000    -2.875000000
H     1.946000000    -1.220000000    -2.229000000
C     2.341000000     1.231000000    -4.115000000
C     3.855000000     1.192000000    -3.884000000
H     4.394000000     2.105000000    -4.144000000
H     4.324000000     0.386000000    -4.454000000
C     4.129000000     0.844000000    -2.478000000
C     4.189000000    -0.472000000    -1.976000000
C     4.468000000    -0.729000000    -0.628000000
H     4.462000000    -1.761000000    -0.287000000
C     4.654000000     0.286000000     0.257000000
O     4.640000000    -0.023000000     1.653000000
C     3.348000000     0.088000000     2.238000000
H     2.683000000     0.344000000     1.400000000
C     2.973000000    -1.175000000     2.972000000
C     1.908000000    -1.130000000     3.856000000
H     1.409000000    -0.169000000     3.950000000
C     3.671000000    -2.440000000     2.790000000
H     4.573000000    -2.472000000     2.185000000
C     3.233000000    -3.571000000     3.489000000
O     3.882000000    -4.771000000     3.337000000
C     2.057000000    -3.536000000     4.302000000
H     1.768000000    -4.423000000     4.861000000
C     1.366000000    -2.291000000     4.403000000
O     0.488000000    -2.346000000     5.436000000
C     0.218000000    -1.233000000     6.251000000
C    -0.987000000    -0.562000000     5.975000000
H    -1.741000000    -1.017000000     5.337000000
C     1.080000000    -0.771000000     7.203000000
H     2.066000000    -1.220000000     7.290000000
C     0.712000000     0.314000000     7.991000000
H     1.416000000     0.739000000     8.702000000
C    -0.450000000     0.989000000     7.725000000
H    -0.773000000     1.810000000     8.359000000
C    -1.396000000     0.555000000     6.710000000
O    -2.604000000     1.154000000     6.555000000
C    -2.888000000     1.558000000     5.239000000
C    -4.254000000     1.368000000     4.851000000
H    -4.949000000     0.785000000     5.449000000
C    -4.671000000     1.928000000     3.627000000
O    -5.959000000     1.807000000     3.225000000
C    -6.389000000     2.137000000     1.985000000
C    -6.184000000     1.214000000     0.962000000
H    -5.626000000     0.291000000     1.100000000
C    -7.188000000     3.222000000     1.747000000
H    -7.451000000     3.928000000     2.530000000
C    -7.878000000     3.423000000     0.543000000
H    -8.526000000     4.286000000     0.413000000
C    -7.765000000     2.453000000    -0.476000000
H    -8.215000000     2.568000000    -1.459000000
C    -6.860000000     1.395000000    -0.243000000
O    -6.888000000     0.414000000    -1.242000000
C    -5.797000000     0.100000000    -2.022000000
C    -5.723000000    -1.195000000    -2.466000000
H    -6.506000000    -1.904000000    -2.209000000
C    -4.620000000    -1.539000000    -3.288000000
O    -4.509000000    -2.784000000    -3.818000000
C    -3.498000000    -3.250000000    -4.452000000
C    -2.623000000    -3.983000000    -3.644000000
H    -2.837000000    -4.070000000    -2.582000000
C    -3.424000000    -3.218000000    -5.827000000
H    -3.984000000    -2.527000000    -6.453000000
C    -2.495000000    -4.056000000    -6.435000000
H    -2.364000000    -4.066000000    -7.514000000
C    -1.529000000    -4.681000000    -5.617000000
H    -0.746000000    -5.363000000    -5.938000000
C    -1.636000000    -4.657000000    -4.248000000
O    -0.760000000    -5.367000000    -3.495000000
C     0.449000000    -4.852000000    -2.925000000
C     1.288000000    -5.743000000    -2.302000000
H     0.969000000    -6.767000000    -2.124000000
C     2.524000000    -5.296000000    -1.879000000
O     3.382000000    -6.114000000    -1.217000000
C     4.211000000    -5.895000000    -0.071000000
C     5.413000000    -6.645000000    -0.018000000
H     5.843000000    -7.098000000    -0.908000000
C     6.133000000    -6.624000000     1.174000000
H     7.094000000    -7.124000000     1.265000000
C     5.614000000    -5.978000000     2.260000000
H     6.163000000    -6.010000000     3.197000000
C     4.420000000    -5.276000000     2.174000000
C     3.735000000    -5.092000000     0.991000000
H     2.715000000    -4.717000000     0.970000000
C    -2.491000000    -1.532000000    -0.455000000
H    -2.966000000    -2.007000000    -1.310000000
C    -1.433000000    -0.604000000    -0.626000000
H    -0.959000000    -0.429000000    -1.588000000
C    -0.926000000     0.100000000     0.445000000
H    -0.044000000     0.814000000     0.379000000
C    -1.474000000    -0.159000000     1.721000000
H    -1.010000000     0.302000000     2.588000000
C    -2.616000000    -0.902000000     1.915000000
H    -3.051000000    -0.981000000     2.907000000
C    -3.093000000    -1.541000000     0.798000000
C    -4.225000000    -2.532000000     1.013000000
O    -4.750000000    -2.713000000     2.080000000
O    -4.591000000    -3.267000000     0.083000000
O    -6.290000000    -4.235000000    -1.913000000
H    -5.823000000    -4.421000000    -2.728000000
H    -5.667000000    -3.731000000    -1.390000000
O    -2.242000000    -6.492000000     0.367000000
H    -1.650000000    -6.268000000     1.085000000
H    -3.083000000    -6.112000000     0.621000000
O    -6.757000000    -1.731000000     4.010000000
H    -5.964000000    -1.967000000     4.491000000
H    -6.555000000    -1.940000000     3.098000000
O    -1.518000000    -4.943000000     3.695000000
H    -1.592000000    -4.740000000     4.628000000
H    -2.271000000    -5.506000000     3.513000000
O    -9.435000000    -3.850000000     2.883000000
H    -8.543000000    -3.967000000     2.555000000
H    -9.515000000    -4.490000000     3.591000000
O    -4.949000000    -5.842000000     0.698000000
H    -4.776000000    -4.906000000     0.603000000
H    -5.671000000    -6.015000000     0.095000000
O    -3.372000000    -8.338000000    -1.306000000
H    -3.586000000    -7.736000000    -2.018000000
H    -3.281000000    -7.777000000    -0.536000000
O    -4.046000000    -1.439000000     7.236000000
H    -4.944000000    -1.763000000     7.303000000
H    -3.820000000    -1.546000000     6.312000000
O    -8.401000000    -4.568000000    -0.245000000
H    -7.672000000    -4.550000000    -0.865000000
H    -8.446000000    -5.479000000     0.046000000
O    -9.087000000    -1.884000000     5.203000000
H    -9.473000000    -2.633000000     4.749000000
H    -8.187000000    -1.846000000     4.882000000
O     0.403000000    -5.521000000     1.494000000
H    -0.048000000    -5.496000000     2.337000000
H     0.321000000    -4.630000000     1.152000000
O    -3.766000000    -6.706000000     3.158000000
H    -4.253000000    -6.493000000     2.362000000
H    -4.086000000    -7.572000000     3.410000000
O    -2.141000000    -4.223000000     6.239000000
H    -1.536000000    -4.890000000     6.564000000
H    -2.535000000    -3.852000000     7.028000000
O    -4.084000000    -2.674000000     4.692000000
H    -4.267000000    -2.909000000     3.782000000
H    -3.537000000    -3.388000000     5.019000000
O    -0.048000000    -2.756000000     1.754000000
H    -0.542000000    -2.842000000     2.569000000
H    -0.477000000    -2.037000000     1.289000000
O    -7.238000000    -2.038000000     1.066000000
H    -7.687000000    -2.792000000     0.683000000
H    -6.431000000    -2.400000000     1.431000000
O    -9.066000000    -0.064000000     1.847000000
H    -8.418000000     0.260000000     2.472000000
H    -8.591000000    -0.709000000     1.323000000
O    -6.834000000    -4.415000000     2.422000000
H    -5.990000000    -3.976000000     2.525000000
H    -6.644000000    -5.173000000     1.869000000
O    -7.873000000    -7.030000000     0.773000000
H    -8.325000000    -7.352000000     1.553000000
H    -7.231000000    -7.711000000     0.571000000
