215
-1431.92622
C    -3.997000000     3.080000000     2.200000000
H    -4.081000000     3.640000000     1.272000000
C    -2.717000000     2.714000000     2.728000000
C    -2.693000000     1.825000000     3.753000000
H    -1.683000000     1.505000000     3.999000000
C    -1.456000000     3.332000000     2.081000000
O    -1.754000000     4.335000000     1.058000000
H    -0.825000000     2.605000000     1.548000000
O    -0.571000000     3.870000000     3.074000000
C     0.744000000     3.468000000     2.875000000
C     1.250000000     2.505000000     3.691000000
H     0.560000000     2.059000000     4.403000000
C     2.511000000     2.007000000     3.471000000
O     2.845000000     0.869000000     4.141000000
C     3.250000000     2.533000000     2.387000000
C     4.689000000     2.073000000     2.113000000
H     5.262000000     2.782000000     1.512000000
C     4.667000000     0.901000000     1.106000000
C     4.843000000     1.237000000    -0.267000000
H     5.250000000     2.208000000    -0.538000000
H     5.348000000     1.804000000     2.941000000
C     2.737000000     3.438000000     1.445000000
H     3.333000000     3.877000000     0.649000000
C     1.420000000     3.959000000     1.759000000
C     0.953000000     5.222000000     1.028000000
H     1.802000000     5.862000000     0.780000000
H     0.245000000     5.865000000     1.554000000
C     0.249000000     4.669000000    -0.212000000
C     0.899000000     4.660000000    -1.441000000
H     1.945000000     4.954000000    -1.450000000
C    -1.098000000     4.279000000    -0.103000000
C    -1.737000000     3.972000000    -1.312000000
H    -2.758000000     3.600000000    -1.287000000
C    -1.068000000     3.802000000    -2.517000000
O    -1.737000000     3.272000000    -3.624000000
C    -1.297000000     1.895000000    -3.733000000
C    -2.463000000     0.960000000    -3.790000000
C    -2.361000000    -0.096000000    -4.612000000
H    -1.423000000    -0.322000000    -5.113000000
C    -3.654000000     1.189000000    -3.006000000
H    -3.662000000     2.082000000    -2.385000000
O    -0.405000000     1.726000000    -4.899000000
H    -0.661000000     1.557000000    -2.901000000
C     0.286000000     4.200000000    -2.575000000
C     1.177000000     4.033000000    -3.840000000
H     2.007000000     4.740000000    -3.901000000
H     0.528000000     4.177000000    -4.706000000
C     1.740000000     2.613000000    -3.901000000
C     3.035000000     2.235000000    -3.308000000
H     3.641000000     3.038000000    -2.896000000
C     0.960000000     1.606000000    -4.551000000
C     1.462000000     0.316000000    -4.446000000
H     0.860000000    -0.492000000    -4.854000000
C     2.702000000    -0.036000000    -3.838000000
O     2.977000000    -1.333000000    -3.759000000
C     2.790000000    -1.948000000    -2.410000000
C     2.156000000    -3.372000000    -2.592000000
C     1.192000000    -3.657000000    -3.548000000
H     0.967000000    -2.940000000    -4.333000000
C     2.270000000    -4.301000000    -1.544000000
H     2.955000000    -4.049000000    -0.738000000
O     4.074000000    -2.041000000    -1.728000000
H     2.073000000    -1.359000000    -1.821000000
C     3.509000000     0.931000000    -3.311000000
C     4.826000000     0.559000000    -2.672000000
H     5.483000000     1.426000000    -2.757000000
H     5.232000000    -0.263000000    -3.266000000
C     4.682000000     0.186000000    -1.187000000
C     4.350000000    -1.086000000    -0.791000000
C     4.076000000    -1.382000000     0.576000000
H     3.549000000    -2.273000000     0.906000000
C     4.256000000    -0.377000000     1.550000000
O     4.071000000    -0.683000000     2.840000000
C     2.766000000    -0.359000000     3.431000000
H     2.078000000    -0.262000000     2.578000000
C     2.142000000    -1.465000000     4.238000000
C     1.294000000    -1.160000000     5.280000000
H     1.241000000    -0.123000000     5.600000000
C     2.289000000    -2.784000000     3.855000000
H     2.928000000    -3.020000000     3.009000000
C     1.697000000    -3.846000000     4.539000000
O     1.683000000    -5.196000000     4.131000000
C     0.896000000    -3.558000000     5.701000000
H     0.392000000    -4.371000000     6.218000000
C     0.716000000    -2.215000000     6.064000000
O    -0.021000000    -1.857000000     7.188000000
C    -0.866000000    -0.724000000     7.125000000
C    -1.938000000    -0.687000000     6.276000000
H    -2.085000000    -1.551000000     5.632000000
C    -0.678000000     0.303000000     8.047000000
H     0.161000000     0.326000000     8.737000000
C    -1.454000000     1.412000000     7.954000000
H    -1.113000000     2.328000000     8.428000000
C    -2.599000000     1.446000000     7.113000000
H    -3.159000000     2.376000000     7.060000000
C    -2.776000000     0.455000000     6.230000000
O    -3.846000000     0.443000000     5.372000000
C    -3.883000000     1.312000000     4.287000000
C    -5.157000000     1.721000000     3.770000000
H    -6.119000000     1.337000000     4.099000000
C    -5.142000000     2.482000000     2.672000000
O    -6.323000000     2.670000000     2.024000000
C    -6.434000000     2.651000000     0.616000000
C    -6.000000000     1.470000000    -0.018000000
H    -5.592000000     0.592000000     0.474000000
C    -6.933000000     3.730000000    -0.078000000
H    -7.436000000     4.471000000     0.538000000
C    -6.896000000     3.748000000    -1.459000000
H    -7.210000000     4.571000000    -2.096000000
C    -6.577000000     2.552000000    -2.090000000
H    -6.673000000     2.538000000    -3.173000000
C    -6.079000000     1.446000000    -1.400000000
O    -5.799000000     0.354000000    -2.203000000
C    -4.710000000     0.274000000    -3.047000000
C    -4.634000000    -0.680000000    -4.035000000
H    -5.428000000    -1.369000000    -4.313000000
C    -3.461000000    -0.899000000    -4.747000000
O    -3.404000000    -1.844000000    -5.672000000
C    -2.346000000    -2.619000000    -6.013000000
C    -1.700000000    -3.492000000    -5.120000000
H    -1.937000000    -3.521000000    -4.060000000
C    -1.970000000    -2.597000000    -7.413000000
H    -2.421000000    -1.909000000    -8.123000000
C    -0.855000000    -3.386000000    -7.869000000
H    -0.423000000    -3.262000000    -8.859000000
C    -0.258000000    -4.327000000    -6.991000000
H     0.611000000    -4.923000000    -7.255000000
C    -0.637000000    -4.319000000    -5.672000000
O    -0.065000000    -5.203000000    -4.773000000
C     0.603000000    -4.906000000    -3.658000000
C     0.761000000    -5.896000000    -2.647000000
H     0.272000000    -6.851000000    -2.823000000
C     1.622000000    -5.544000000    -1.605000000
O     1.683000000    -6.402000000    -0.508000000
C     2.349000000    -6.140000000     0.688000000
C     3.709000000    -6.407000000     0.696000000
H     4.224000000    -6.593000000    -0.243000000
C     4.380000000    -6.227000000     1.859000000
H     5.452000000    -6.362000000     1.978000000
C     3.663000000    -5.979000000     3.073000000
H     4.156000000    -5.878000000     4.037000000
C     2.325000000    -5.592000000     3.015000000
C     1.698000000    -5.615000000     1.758000000
H     0.648000000    -5.386000000     1.590000000
C    -2.824000000    -0.978000000     0.347000000
H    -3.515000000    -1.093000000    -0.484000000
C    -1.657000000    -0.234000000     0.086000000
H    -1.438000000    -0.025000000    -0.958000000
C    -0.751000000     0.013000000     1.122000000
H     0.177000000     0.545000000     0.929000000
C    -1.013000000    -0.376000000     2.416000000
H    -0.371000000    -0.068000000     3.238000000
C    -2.233000000    -1.107000000     2.681000000
H    -2.437000000    -1.516000000     3.668000000
C    -3.219000000    -1.330000000     1.647000000
C    -4.495000000    -2.009000000     1.908000000
O    -4.775000000    -2.450000000     3.021000000
O    -5.241000000    -2.235000000     0.957000000
O    -3.114000000    -5.858000000    -1.022000000
H    -3.608000000    -5.471000000    -0.299000000
H    -3.434000000    -5.405000000    -1.802000000
O    -7.480000000    -2.203000000     2.865000000
H    -6.539000000    -2.064000000     2.763000000
H    -7.592000000    -3.151000000     2.783000000
O    -3.769000000    -4.238000000     4.835000000
H    -3.100000000    -4.837000000     4.503000000
H    -4.082000000    -3.774000000     4.059000000
O    -5.881000000    -4.984000000     0.820000000
H    -5.739000000    -4.037000000     0.813000000
H    -6.645000000    -5.106000000     1.384000000
O    -7.957000000    -5.206000000     2.456000000
H    -8.879000000    -5.135000000     2.210000000
H    -7.959000000    -5.770000000     3.230000000
O    -8.027000000    -3.635000000     5.354000000
H    -8.858000000    -3.249000000     5.632000000
H    -8.009000000    -4.493000000     5.778000000
O    -4.215000000    -7.278000000     1.830000000
H    -4.454000000    -7.949000000     2.469000000
H    -4.575000000    -6.467000000     2.187000000
O    -8.505000000    -0.139000000     4.460000000
H    -8.403000000    -0.301000000     5.398000000
H    -8.301000000    -0.979000000     4.049000000
O    -9.114000000     1.533000000     1.999000000
H    -8.889000000     0.971000000     2.741000000
H    -9.088000000     2.421000000     2.354000000
O    -2.251000000    -5.837000000     3.306000000
H    -2.503000000    -6.507000000     2.671000000
H    -1.808000000    -5.167000000     2.785000000
O    -9.199000000    -1.013000000     1.272000000
H    -8.852000000    -0.122000000     1.233000000
H    -8.595000000    -1.480000000     1.848000000
O    -7.160000000    -6.814000000    -0.735000000
H    -7.344000000    -6.449000000    -1.601000000
H    -6.461000000    -6.261000000    -0.386000000
O    -5.846000000    -0.119000000     7.874000000
H    -6.573000000    -0.613000000     8.253000000
H    -5.528000000    -0.671000000     7.160000000
O    -4.177000000    -3.684000000     7.471000000
H    -4.674000000    -2.895000000     7.257000000
H    -3.987000000    -4.086000000     6.622000000
O    -5.824000000    -1.922000000     5.973000000
H    -5.225000000    -2.036000000     5.235000000
H    -6.613000000    -2.399000000     5.716000000
O    -0.960000000    -3.632000000     1.856000000
H    -1.351000000    -2.764000000     1.947000000
H    -0.390000000    -3.559000000     1.090000000
O    -7.330000000    -1.561000000    -1.268000000
H    -8.023000000    -1.512000000    -0.610000000
H    -6.540000000    -1.768000000    -0.768000000
O    -6.610000000    -3.784000000    -2.965000000
H    -7.124000000    -3.293000000    -3.606000000
H    -6.755000000    -3.324000000    -2.139000000
O    -5.289000000    -6.287000000     6.027000000
H    -4.937000000    -5.535000000     5.550000000
H    -6.177000000    -6.392000000     5.688000000
