215
-1462.59476
C    -4.275000000     2.461000000     1.742000000
H    -4.319000000     2.895000000     0.746000000
C    -3.093000000     2.517000000     2.452000000
C    -2.967000000     1.969000000     3.718000000
H    -2.028000000     1.912000000     4.262000000
C    -1.843000000     3.246000000     1.842000000
O    -2.248000000     4.409000000     1.009000000
H    -1.249000000     2.539000000     1.244000000
O    -0.981000000     3.732000000     2.871000000
C     0.369000000     3.453000000     2.696000000
C     0.841000000     2.395000000     3.449000000
H     0.202000000     1.923000000     4.191000000
C     2.173000000     2.134000000     3.234000000
O     2.704000000     1.096000000     3.902000000
C     2.939000000     2.802000000     2.311000000
C     4.447000000     2.581000000     2.208000000
H     5.014000000     3.498000000     2.035000000
C     4.651000000     1.523000000     1.136000000
C     4.771000000     1.848000000    -0.254000000
H     4.594000000     2.867000000    -0.589000000
H     4.912000000     2.281000000     3.149000000
C     2.431000000     3.833000000     1.542000000
H     3.033000000     4.336000000     0.789000000
C     1.128000000     4.209000000     1.723000000
C     0.511000000     5.334000000     0.927000000
H     1.350000000     5.906000000     0.525000000
H    -0.072000000     5.945000000     1.618000000
C    -0.270000000     4.807000000    -0.289000000
C     0.405000000     4.663000000    -1.491000000
H     1.451000000     4.959000000    -1.502000000
C    -1.585000000     4.491000000    -0.160000000
C    -2.224000000     3.860000000    -1.216000000
H    -3.214000000     3.415000000    -1.162000000
C    -1.569000000     3.653000000    -2.445000000
O    -2.180000000     2.935000000    -3.405000000
C    -1.870000000     1.584000000    -3.738000000
C    -3.072000000     0.686000000    -4.064000000
C    -2.780000000    -0.571000000    -4.609000000
H    -1.759000000    -0.866000000    -4.833000000
C    -4.308000000     0.963000000    -3.543000000
H    -4.412000000     1.828000000    -2.893000000
O    -0.789000000     1.445000000    -4.694000000
H    -1.444000000     1.276000000    -2.772000000
C    -0.298000000     4.146000000    -2.599000000
C     0.480000000     3.900000000    -3.874000000
H     1.271000000     4.621000000    -4.091000000
H    -0.141000000     4.064000000    -4.757000000
C     1.181000000     2.591000000    -3.826000000
C     2.450000000     2.527000000    -3.252000000
H     2.895000000     3.449000000    -2.888000000
C     0.492000000     1.404000000    -4.201000000
C     1.108000000     0.152000000    -4.022000000
H     0.665000000    -0.789000000    -4.338000000
C     2.443000000     0.133000000    -3.532000000
O     3.025000000    -1.102000000    -3.403000000
C     3.014000000    -1.666000000    -2.086000000
C     2.536000000    -3.076000000    -2.146000000
C     1.603000000    -3.450000000    -3.083000000
H     1.251000000    -2.773000000    -3.858000000
C     3.072000000    -3.955000000    -1.249000000
H     3.805000000    -3.569000000    -0.546000000
O     4.322000000    -1.600000000    -1.562000000
H     2.348000000    -1.020000000    -1.495000000
C     3.122000000     1.316000000    -3.105000000
C     4.589000000     1.202000000    -2.713000000
H     5.095000000     2.169000000    -2.756000000
H     5.183000000     0.525000000    -3.331000000
C     4.716000000     0.803000000    -1.235000000
C     4.720000000    -0.521000000    -0.844000000
C     4.727000000    -0.884000000     0.536000000
H     4.658000000    -1.934000000     0.805000000
C     4.609000000     0.144000000     1.486000000
O     4.201000000    -0.304000000     2.695000000
C     2.842000000    -0.155000000     3.132000000
H     2.210000000    -0.152000000     2.232000000
C     2.316000000    -1.363000000     3.929000000
C     1.274000000    -1.210000000     4.856000000
H     0.877000000    -0.213000000     5.030000000
C     2.818000000    -2.625000000     3.819000000
H     3.679000000    -2.717000000     3.162000000
C     2.277000000    -3.774000000     4.297000000
O     2.965000000    -4.993000000     4.150000000
C     1.258000000    -3.601000000     5.265000000
H     0.826000000    -4.505000000     5.687000000
C     0.735000000    -2.376000000     5.584000000
O    -0.264000000    -2.216000000     6.506000000
C    -0.956000000    -1.015000000     6.668000000
C    -2.078000000    -0.737000000     5.970000000
H    -2.467000000    -1.406000000     5.206000000
C    -0.537000000    -0.121000000     7.645000000
H     0.319000000    -0.368000000     8.269000000
C    -1.175000000     1.131000000     7.932000000
H    -0.712000000     1.862000000     8.591000000
C    -2.305000000     1.361000000     7.167000000
H    -2.891000000     2.270000000     7.271000000
C    -2.767000000     0.491000000     6.199000000
O    -3.987000000     0.705000000     5.494000000
C    -4.144000000     1.361000000     4.259000000
C    -5.334000000     1.316000000     3.529000000
H    -6.131000000     0.722000000     3.969000000
C    -5.412000000     1.831000000     2.282000000
O    -6.598000000     1.521000000     1.527000000
C    -6.783000000     1.827000000     0.201000000
C    -6.524000000     0.927000000    -0.794000000
H    -6.172000000    -0.081000000    -0.594000000
C    -7.248000000     3.156000000    -0.182000000
H    -7.274000000     3.920000000     0.590000000
C    -7.454000000     3.554000000    -1.503000000
H    -7.746000000     4.557000000    -1.803000000
C    -7.183000000     2.594000000    -2.449000000
H    -7.331000000     2.870000000    -3.490000000
C    -6.805000000     1.269000000    -2.161000000
O    -6.600000000     0.330000000    -3.147000000
C    -5.345000000     0.081000000    -3.676000000
C    -5.149000000    -1.132000000    -4.355000000
H    -5.897000000    -1.920000000    -4.382000000
C    -3.842000000    -1.470000000    -4.801000000
O    -3.638000000    -2.741000000    -5.353000000
C    -2.381000000    -3.325000000    -5.516000000
C    -1.721000000    -4.024000000    -4.494000000
H    -2.211000000    -4.103000000    -3.527000000
C    -1.801000000    -3.136000000    -6.753000000
H    -2.277000000    -2.462000000    -7.461000000
C    -0.635000000    -3.684000000    -7.066000000
H    -0.216000000    -3.464000000    -8.044000000
C     0.023000000    -4.497000000    -6.150000000
H     0.939000000    -5.025000000    -6.401000000
C    -0.490000000    -4.605000000    -4.834000000
O     0.263000000    -5.322000000    -3.901000000
C     1.298000000    -4.822000000    -3.135000000
C     1.782000000    -5.679000000    -2.151000000
H     1.594000000    -6.742000000    -2.276000000
C     2.817000000    -5.304000000    -1.264000000
O     3.429000000    -6.263000000    -0.460000000
C     3.931000000    -5.988000000     0.766000000
C     5.325000000    -5.876000000     0.862000000
H     5.857000000    -6.216000000    -0.023000000
C     5.869000000    -5.442000000     2.028000000
H     6.946000000    -5.404000000     2.166000000
C     5.085000000    -5.120000000     3.084000000
H     5.591000000    -4.890000000     4.017000000
C     3.694000000    -5.243000000     2.988000000
C     3.105000000    -5.652000000     1.792000000
H     2.023000000    -5.686000000     1.697000000
C    -2.548000000    -1.716000000    -0.591000000
H    -3.321000000    -2.222000000    -1.163000000
C    -1.400000000    -1.211000000    -1.197000000
H    -1.262000000    -1.408000000    -2.257000000
C    -0.657000000    -0.268000000    -0.480000000
H     0.094000000     0.384000000    -0.934000000
C    -0.830000000    -0.167000000     0.877000000
H    -0.214000000     0.531000000     1.438000000
C    -1.946000000    -0.751000000     1.548000000
H    -2.206000000    -0.539000000     2.582000000
C    -2.808000000    -1.574000000     0.761000000
C    -4.102000000    -2.111000000     1.340000000
O    -4.264000000    -2.142000000     2.563000000
O    -4.981000000    -2.580000000     0.654000000
O    -3.268000000    -4.946000000    -1.567000000
H    -2.879000000    -4.744000000    -0.716000000
H    -4.090000000    -5.388000000    -1.356000000
O    -4.488000000    -7.484000000     1.043000000
H    -4.956000000    -7.218000000     0.251000000
H    -3.680000000    -7.883000000     0.720000000
O    -7.038000000    -2.036000000     2.387000000
H    -7.264000000    -1.486000000     1.637000000
H    -6.083000000    -2.088000000     2.368000000
O    -2.323000000    -3.814000000     3.575000000
H    -2.673000000    -4.324000000     4.305000000
H    -2.972000000    -3.125000000     3.431000000
O    -6.771000000    -5.085000000     0.477000000
H    -6.560000000    -4.165000000     0.636000000
H    -7.722000000    -5.097000000     0.369000000
O    -5.098000000    -4.982000000     3.325000000
H    -6.001000000    -5.257000000     3.479000000
H    -5.126000000    -4.527000000     2.484000000
O    -9.358000000    -0.115000000    -0.017000000
H    -9.916000000     0.620000000    -0.270000000
H    -9.215000000     0.005000000     0.922000000
O    -2.905000000    -5.256000000     1.169000000
H    -2.892000000    -4.929000000     2.068000000
H    -3.592000000    -5.923000000     1.166000000
O    -8.900000000    -1.500000000     5.297000000
H    -9.546000000    -2.022000000     4.821000000
H    -8.064000000    -1.718000000     4.884000000
O    -8.976000000     0.299000000     2.581000000
H    -8.917000000     1.253000000     2.633000000
H    -8.419000000    -0.014000000     3.294000000
O    -0.562000000    -6.639000000     0.276000000
H    -0.444000000    -5.699000000     0.412000000
H     0.143000000    -7.044000000     0.781000000
O    -9.027000000    -3.659000000     2.819000000
H    -8.428000000    -3.045000000     2.396000000
H    -8.649000000    -4.521000000     2.645000000
O    -0.082000000    -5.637000000     3.433000000
H    -0.921000000    -5.419000000     3.839000000
H     0.151000000    -4.857000000     2.930000000
O    -5.627000000    -6.565000000    -1.230000000
H    -6.089000000    -7.119000000    -1.859000000
H    -6.306000000    -5.993000000    -0.871000000
O    -5.015000000    -2.371000000     5.152000000
H    -4.662000000    -2.073000000     4.314000000
H    -5.401000000    -3.225000000     4.960000000
O     0.300000000    -3.763000000     1.277000000
H     0.328000000    -3.372000000     0.404000000
H    -0.379000000    -3.271000000     1.739000000
O    -5.585000000    -3.207000000    -1.888000000
H    -4.803000000    -3.757000000    -1.930000000
H    -5.492000000    -2.720000000    -1.069000000
O    -8.372000000    -4.120000000    -2.253000000
H    -7.428000000    -3.963000000    -2.224000000
H    -8.597000000    -4.394000000    -1.364000000
O    -3.327000000    -5.542000000     5.532000000
H    -3.936000000    -5.155000000     6.161000000
H    -3.849000000    -5.664000000     4.739000000
