215
-1458.00341
C    -4.170000000     2.306000000     1.924000000
H    -4.306000000     2.703000000     0.921000000
C    -2.977000000     2.374000000     2.637000000
C    -2.975000000     1.926000000     3.979000000
H    -2.075000000     2.010000000     4.583000000
C    -1.766000000     2.978000000     2.032000000
O    -2.104000000     4.030000000     1.169000000
H    -1.234000000     2.144000000     1.551000000
O    -0.953000000     3.591000000     3.126000000
C     0.446000000     3.384000000     3.000000000
C     1.093000000     2.437000000     3.781000000
H     0.569000000     2.079000000     4.663000000
C     2.368000000     2.091000000     3.479000000
O     3.013000000     1.069000000     4.105000000
C     3.080000000     2.766000000     2.460000000
C     4.565000000     2.412000000     2.160000000
H     5.088000000     3.319000000     1.849000000
C     4.587000000     1.312000000     1.119000000
C     4.595000000     1.673000000    -0.232000000
H     4.551000000     2.734000000    -0.464000000
H     5.041000000     2.020000000     3.061000000
C     2.427000000     3.689000000     1.601000000
H     2.860000000     4.052000000     0.672000000
C     1.173000000     4.049000000     2.017000000
C     0.462000000     5.134000000     1.250000000
H     1.242000000     5.844000000     0.968000000
H    -0.183000000     5.802000000     1.824000000
C    -0.134000000     4.605000000    -0.031000000
C     0.580000000     4.667000000    -1.256000000
H     1.584000000     5.069000000    -1.145000000
C    -1.424000000     4.127000000    -0.018000000
C    -2.027000000     3.614000000    -1.172000000
H    -3.030000000     3.205000000    -1.081000000
C    -1.328000000     3.644000000    -2.372000000
O    -1.919000000     2.990000000    -3.383000000
C    -1.478000000     1.652000000    -3.825000000
C    -2.710000000     0.688000000    -4.061000000
C    -2.549000000    -0.348000000    -4.942000000
H    -1.689000000    -0.535000000    -5.580000000
C    -3.949000000     0.972000000    -3.424000000
H    -4.051000000     1.804000000    -2.733000000
O    -0.472000000     1.771000000    -4.846000000
H    -1.023000000     1.197000000    -2.933000000
C    -0.036000000     4.203000000    -2.420000000
C     0.888000000     4.132000000    -3.746000000
H     1.626000000     4.931000000    -3.845000000
H     0.337000000     4.360000000    -4.661000000
C     1.580000000     2.763000000    -3.857000000
C     2.789000000     2.537000000    -3.356000000
H     3.438000000     3.374000000    -3.108000000
C     0.880000000     1.653000000    -4.460000000
C     1.424000000     0.383000000    -4.447000000
H     0.824000000    -0.439000000    -4.829000000
C     2.667000000     0.205000000    -3.840000000
O     3.146000000    -1.092000000    -3.643000000
C     3.101000000    -1.668000000    -2.369000000
C     2.638000000    -3.137000000    -2.483000000
C     1.622000000    -3.478000000    -3.424000000
H     1.363000000    -2.881000000    -4.295000000
C     3.089000000    -4.079000000    -1.607000000
H     3.706000000    -3.698000000    -0.797000000
O     4.380000000    -1.547000000    -1.750000000
H     2.395000000    -1.208000000    -1.661000000
C     3.395000000     1.270000000    -3.315000000
C     4.710000000     1.140000000    -2.616000000
H     5.270000000     2.071000000    -2.722000000
H     5.346000000     0.380000000    -3.075000000
C     4.642000000     0.752000000    -1.218000000
C     4.556000000    -0.577000000    -0.843000000
C     4.541000000    -1.007000000     0.492000000
H     4.408000000    -2.054000000     0.749000000
C     4.461000000    -0.048000000     1.517000000
O     4.184000000    -0.490000000     2.831000000
C     2.905000000    -0.129000000     3.370000000
H     2.263000000     0.094000000     2.505000000
C     2.211000000    -1.276000000     4.101000000
C     1.419000000    -1.075000000     5.199000000
H     1.343000000    -0.093000000     5.657000000
C     2.235000000    -2.485000000     3.441000000
H     2.952000000    -2.561000000     2.628000000
C     1.597000000    -3.631000000     4.026000000
O     1.718000000    -4.880000000     3.467000000
C     0.790000000    -3.435000000     5.140000000
H     0.216000000    -4.281000000     5.509000000
C     0.585000000    -2.138000000     5.660000000
O    -0.274000000    -1.913000000     6.697000000
C    -1.023000000    -0.796000000     7.056000000
C    -2.181000000    -0.486000000     6.298000000
H    -2.482000000    -1.079000000     5.438000000
C    -0.610000000     0.013000000     8.110000000
H     0.324000000    -0.192000000     8.625000000
C    -1.378000000     1.122000000     8.415000000
H    -1.272000000     1.702000000     9.328000000
C    -2.547000000     1.447000000     7.737000000
H    -3.186000000     2.253000000     8.088000000
C    -2.938000000     0.627000000     6.687000000
O    -4.130000000     0.929000000     5.929000000
C    -4.095000000     1.316000000     4.581000000
C    -5.220000000     1.224000000     3.775000000
H    -6.072000000     0.794000000     4.295000000
C    -5.262000000     1.673000000     2.467000000
O    -6.380000000     1.493000000     1.703000000
C    -6.524000000     1.817000000     0.380000000
C    -6.141000000     0.869000000    -0.669000000
H    -5.540000000    -0.004000000    -0.427000000
C    -7.228000000     2.936000000     0.051000000
H    -7.699000000     3.552000000     0.812000000
C    -7.581000000     3.230000000    -1.299000000
H    -8.190000000     4.102000000    -1.521000000
C    -7.056000000     2.443000000    -2.311000000
H    -7.497000000     2.667000000    -3.279000000
C    -6.433000000     1.246000000    -2.006000000
O    -6.238000000     0.377000000    -3.106000000
C    -5.028000000     0.131000000    -3.671000000
C    -4.834000000    -1.025000000    -4.414000000
H    -5.665000000    -1.724000000    -4.459000000
C    -3.632000000    -1.267000000    -5.133000000
O    -3.436000000    -2.391000000    -5.890000000
C    -2.237000000    -3.038000000    -6.106000000
C    -1.608000000    -3.727000000    -5.115000000
H    -2.041000000    -3.897000000    -4.132000000
C    -1.593000000    -2.845000000    -7.287000000
H    -2.095000000    -2.190000000    -7.995000000
C    -0.358000000    -3.497000000    -7.577000000
H     0.165000000    -3.238000000    -8.494000000
C     0.202000000    -4.337000000    -6.595000000
H     1.216000000    -4.722000000    -6.679000000
C    -0.450000000    -4.464000000    -5.365000000
O     0.167000000    -5.158000000    -4.387000000
C     1.012000000    -4.748000000    -3.376000000
C     1.529000000    -5.682000000    -2.497000000
H     1.184000000    -6.711000000    -2.557000000
C     2.570000000    -5.347000000    -1.657000000
O     3.150000000    -6.339000000    -0.866000000
C     3.484000000    -6.101000000     0.443000000
C     4.823000000    -6.027000000     0.830000000
H     5.612000000    -6.378000000     0.169000000
C     5.135000000    -5.757000000     2.160000000
H     6.191000000    -5.642000000     2.391000000
C     4.053000000    -5.484000000     3.056000000
H     4.271000000    -5.184000000     4.078000000
C     2.772000000    -5.296000000     2.613000000
C     2.476000000    -5.658000000     1.329000000
H     1.450000000    -5.570000000     0.981000000
C    -2.513000000    -1.659000000    -0.347000000
H    -3.291000000    -2.236000000    -0.841000000
C    -1.588000000    -1.091000000    -1.188000000
H    -1.686000000    -1.108000000    -2.270000000
C    -0.597000000    -0.362000000    -0.594000000
H     0.106000000     0.226000000    -1.238000000
C    -0.552000000    -0.223000000     0.802000000
H     0.249000000     0.350000000     1.263000000
C    -1.460000000    -0.838000000     1.644000000
H    -1.538000000    -0.685000000     2.718000000
C    -2.533000000    -1.565000000     1.056000000
C    -3.684000000    -2.116000000     1.852000000
O    -3.648000000    -2.072000000     3.060000000
O    -4.688000000    -2.483000000     1.281000000
O    -7.370000000    -7.130000000     1.878000000
H    -6.856000000    -6.338000000     1.722000000
H    -6.772000000    -7.716000000     2.342000000
O    -3.303000000    -6.888000000     0.575000000
H    -3.721000000    -7.320000000     1.321000000
H    -4.030000000    -6.518000000     0.075000000
O    -6.840000000    -1.282000000     2.937000000
H    -6.563000000    -0.425000000     2.612000000
H    -6.159000000    -1.884000000     2.634000000
O    -2.445000000    -4.108000000     4.011000000
H    -1.882000000    -4.176000000     3.239000000
H    -2.973000000    -3.325000000     3.853000000
O    -5.527000000    -5.035000000     1.711000000
H    -4.960000000    -5.419000000     2.380000000
H    -5.126000000    -4.187000000     1.516000000
O    -6.273000000    -4.318000000     4.913000000
H    -6.883000000    -5.050000000     5.002000000
H    -6.098000000    -4.265000000     3.974000000
O    -4.101000000    -6.679000000     3.719000000
H    -3.531000000    -5.937000000     3.924000000
H    -4.181000000    -7.154000000     4.546000000
O    -8.675000000    -1.970000000     5.526000000
H    -8.724000000    -2.529000000     4.751000000
H    -7.782000000    -2.089000000     5.851000000
O    -1.404000000    -5.461000000     1.945000000
H    -2.101000000    -5.960000000     1.519000000
H    -0.926000000    -5.052000000     1.223000000
O    -9.652000000    -0.769000000     2.380000000
H    -9.833000000    -0.002000000     2.924000000
H    -8.760000000    -1.023000000     2.614000000
O    -6.064000000    -6.299000000    -0.861000000
H    -6.346000000    -5.779000000    -1.613000000
H    -5.984000000    -5.665000000    -0.148000000
O    -4.640000000    -2.548000000     8.195000000
H    -5.573000000    -2.447000000     8.386000000
H    -4.565000000    -2.351000000     7.261000000
O    -5.059000000    -2.026000000     5.750000000
H    -4.391000000    -1.889000000     5.078000000
H    -5.547000000    -2.793000000     5.449000000
O    -8.661000000    -1.703000000    -2.784000000
H    -9.386000000    -1.356000000    -2.265000000
H    -8.035000000    -2.025000000    -2.136000000
O    -0.042000000    -3.615000000     0.116000000
H     0.450000000    -3.123000000     0.773000000
H    -0.345000000    -2.951000000    -0.504000000
O    -3.102000000    -4.306000000    -2.013000000
H    -3.045000000    -4.870000000    -1.242000000
H    -4.040000000    -4.230000000    -2.187000000
O    -6.888000000    -2.863000000    -0.489000000
H    -7.607000000    -3.222000000     0.032000000
H    -6.295000000    -2.477000000     0.156000000
O    -6.234000000    -4.222000000    -3.000000000
H    -6.319000000    -3.412000000    -2.497000000
H    -6.955000000    -4.190000000    -3.629000000
O    -0.947000000    -6.854000000     4.634000000
H    -0.601000000    -6.957000000     3.748000000
H    -1.459000000    -6.046000000     4.600000000
