215
-1463.79198
C    -2.705000000     2.639000000     3.086000000
H    -3.045000000     2.960000000     2.105000000
C    -1.384000000     2.800000000     3.467000000
C    -0.966000000     2.235000000     4.704000000
H     0.073000000     2.204000000     5.024000000
C    -0.382000000     3.376000000     2.517000000
O    -0.932000000     4.405000000     1.712000000
H     0.007000000     2.544000000     1.912000000
O     0.770000000     3.971000000     3.145000000
C     1.938000000     3.538000000     2.579000000
C     2.614000000     2.448000000     3.109000000
H     2.178000000     1.944000000     3.968000000
C     3.655000000     1.922000000     2.397000000
O     3.987000000     0.701000000     2.796000000
C     4.104000000     2.535000000     1.185000000
C     5.218000000     1.883000000     0.356000000
H     5.751000000     2.632000000    -0.234000000
C     4.730000000     0.783000000    -0.557000000
C     4.593000000     1.053000000    -1.944000000
H     4.690000000     2.059000000    -2.344000000
H     5.994000000     1.481000000     1.011000000
C     3.512000000     3.712000000     0.795000000
H     3.866000000     4.200000000    -0.109000000
C     2.397000000     4.152000000     1.409000000
C     1.675000000     5.340000000     0.765000000
H     2.337000000     6.152000000     0.458000000
H     1.120000000     5.860000000     1.549000000
C     0.618000000     4.819000000    -0.174000000
C     0.833000000     4.672000000    -1.570000000
H     1.809000000     4.891000000    -1.996000000
C    -0.613000000     4.437000000     0.397000000
C    -1.575000000     3.844000000    -0.378000000
H    -2.483000000     3.459000000     0.080000000
C    -1.422000000     3.743000000    -1.767000000
O    -2.341000000     3.067000000    -2.394000000
C    -2.201000000     1.774000000    -2.917000000
C    -3.587000000     1.120000000    -2.821000000
C    -3.913000000     0.083000000    -3.675000000
H    -3.171000000    -0.255000000    -4.393000000
C    -4.503000000     1.468000000    -1.876000000
H    -4.272000000     2.212000000    -1.117000000
O    -1.668000000     1.788000000    -4.295000000
H    -1.532000000     1.160000000    -2.295000000
C    -0.206000000     4.153000000    -2.360000000
C     0.136000000     3.994000000    -3.791000000
H     0.964000000     4.671000000    -4.012000000
H    -0.712000000     4.136000000    -4.465000000
C     0.638000000     2.525000000    -4.099000000
C     1.954000000     2.136000000    -4.047000000
H     2.705000000     2.883000000    -3.807000000
C    -0.346000000     1.572000000    -4.408000000
C    -0.041000000     0.245000000    -4.685000000
H    -0.862000000    -0.467000000    -4.725000000
C     1.269000000    -0.142000000    -4.653000000
O     1.546000000    -1.424000000    -4.640000000
C     1.725000000    -1.963000000    -3.300000000
C     0.972000000    -3.316000000    -3.229000000
C    -0.234000000    -3.628000000    -3.913000000
H    -0.561000000    -3.026000000    -4.757000000
C     1.346000000    -4.080000000    -2.147000000
H     2.177000000    -3.868000000    -1.480000000
O     3.163000000    -2.131000000    -3.081000000
H     1.420000000    -1.240000000    -2.530000000
C     2.310000000     0.766000000    -4.355000000
C     3.753000000     0.401000000    -4.269000000
H     4.404000000     1.256000000    -4.460000000
H     4.009000000    -0.377000000    -4.992000000
C     4.068000000     0.070000000    -2.761000000
C     3.818000000    -1.161000000    -2.293000000
C     3.997000000    -1.482000000    -0.921000000
H     3.796000000    -2.491000000    -0.568000000
C     4.365000000    -0.473000000    -0.089000000
O     4.548000000    -0.804000000     1.228000000
C     3.447000000    -0.389000000     2.092000000
H     2.636000000     0.010000000     1.465000000
C     3.105000000    -1.526000000     3.075000000
C     2.529000000    -1.297000000     4.387000000
H     2.245000000    -0.298000000     4.708000000
C     3.354000000    -2.910000000     2.757000000
H     3.667000000    -3.105000000     1.735000000
C     3.160000000    -3.970000000     3.673000000
O     3.226000000    -5.312000000     3.302000000
C     2.594000000    -3.676000000     4.887000000
H     2.401000000    -4.503000000     5.566000000
C     2.308000000    -2.362000000     5.204000000
O     1.739000000    -2.160000000     6.484000000
C     1.382000000    -0.905000000     7.063000000
C     0.153000000    -0.461000000     6.640000000
H    -0.374000000    -0.973000000     5.840000000
C     2.036000000    -0.308000000     8.142000000
H     2.867000000    -0.864000000     8.568000000
C     1.516000000     0.890000000     8.721000000
H     2.000000000     1.372000000     9.566000000
C     0.327000000     1.297000000     8.180000000
H    -0.112000000     2.175000000     8.648000000
C    -0.308000000     0.727000000     7.132000000
O    -1.567000000     1.296000000     6.750000000
C    -1.923000000     1.629000000     5.498000000
C    -3.257000000     1.530000000     5.116000000
H    -4.076000000     1.167000000     5.732000000
C    -3.613000000     1.992000000     3.863000000
O    -4.911000000     1.831000000     3.452000000
C    -5.488000000     2.431000000     2.353000000
C    -5.628000000     1.661000000     1.181000000
H    -5.237000000     0.648000000     1.130000000
C    -5.978000000     3.699000000     2.431000000
H    -5.797000000     4.276000000     3.334000000
C    -6.774000000     4.185000000     1.359000000
H    -7.276000000     5.140000000     1.488000000
C    -7.031000000     3.369000000     0.215000000
H    -7.545000000     3.799000000    -0.641000000
C    -6.377000000     2.131000000     0.147000000
O    -6.671000000     1.287000000    -0.895000000
C    -5.807000000     0.901000000    -1.892000000
C    -6.151000000    -0.141000000    -2.794000000
H    -7.109000000    -0.654000000    -2.750000000
C    -5.197000000    -0.531000000    -3.749000000
O    -5.444000000    -1.535000000    -4.647000000
C    -4.549000000    -2.467000000    -5.200000000
C    -3.605000000    -3.229000000    -4.508000000
H    -3.529000000    -2.988000000    -3.451000000
C    -4.696000000    -2.693000000    -6.574000000
H    -5.364000000    -2.140000000    -7.230000000
C    -3.958000000    -3.748000000    -7.108000000
H    -4.122000000    -3.867000000    -8.176000000
C    -3.116000000    -4.584000000    -6.383000000
H    -2.571000000    -5.440000000    -6.772000000
C    -2.946000000    -4.312000000    -5.046000000
O    -2.147000000    -5.131000000    -4.282000000
C    -0.996000000    -4.766000000    -3.628000000
C    -0.630000000    -5.530000000    -2.556000000
H    -1.274000000    -6.389000000    -2.384000000
C     0.490000000    -5.193000000    -1.727000000
O     0.707000000    -6.083000000    -0.684000000
C     1.915000000    -6.042000000     0.019000000
C     3.077000000    -6.426000000    -0.658000000
H     2.972000000    -6.651000000    -1.716000000
C     4.282000000    -6.544000000    -0.047000000
H     5.144000000    -6.765000000    -0.672000000
C     4.382000000    -6.194000000     1.333000000
H     5.320000000    -6.213000000     1.882000000
C     3.248000000    -5.713000000     1.944000000
C     1.993000000    -5.694000000     1.314000000
H     1.108000000    -5.292000000     1.800000000
C    -2.300000000    -1.367000000     0.310000000
H    -3.015000000    -1.891000000    -0.319000000
C    -1.156000000    -0.730000000    -0.214000000
H    -1.002000000    -0.608000000    -1.283000000
C    -0.234000000    -0.147000000     0.576000000
H     0.606000000     0.359000000     0.088000000
C    -0.490000000    -0.054000000     1.934000000
H     0.222000000     0.506000000     2.536000000
C    -1.590000000    -0.685000000     2.471000000
H    -1.742000000    -0.709000000     3.547000000
C    -2.471000000    -1.350000000     1.672000000
C    -3.723000000    -1.865000000     2.283000000
O    -3.862000000    -1.833000000     3.481000000
O    -4.564000000    -2.390000000     1.605000000
O    -2.758000000    -5.884000000     5.511000000
H    -3.196000000    -5.582000000     6.307000000
H    -3.365000000    -6.517000000     5.128000000
O    -5.802000000    -6.609000000     0.782000000
H    -5.194000000    -5.872000000     0.836000000
H    -5.356000000    -7.248000000     0.226000000
O    -3.960000000    -6.039000000    -1.609000000
H    -4.039000000    -6.248000000    -2.540000000
H    -4.283000000    -5.141000000    -1.537000000
O    -6.729000000    -1.557000000     0.217000000
H    -5.886000000    -1.500000000     0.668000000
H    -7.016000000    -0.648000000     0.130000000
O    -0.136000000    -5.721000000     5.389000000
H    -0.909000000    -5.168000000     5.277000000
H    -0.396000000    -6.571000000     5.033000000
O    -4.289000000    -4.964000000     3.232000000
H    -4.660000000    -4.153000000     2.883000000
H    -3.366000000    -4.933000000     2.981000000
O    -6.084000000    -4.859000000     6.781000000
H    -5.600000000    -4.033000000     6.756000000
H    -5.743000000    -5.359000000     6.040000000
O    -5.673000000    -6.436000000     4.741000000
H    -5.506000000    -7.352000000     4.516000000
H    -5.234000000    -5.937000000     4.052000000
O    -8.371000000     1.227000000     3.114000000
H    -8.389000000     0.332000000     3.454000000
H    -7.559000000     1.598000000     3.459000000
O    -7.879000000    -5.641000000     2.347000000
H    -7.059000000    -6.033000000     2.047000000
H    -7.615000000    -4.813000000     2.749000000
O    -1.646000000    -4.134000000     1.807000000
H    -1.591000000    -4.811000000     1.133000000
H    -1.537000000    -3.311000000     1.330000000
O    -2.926000000    -2.547000000     7.221000000
H    -2.252000000    -2.845000000     6.609000000
H    -3.724000000    -2.501000000     6.694000000
O    -6.850000000    -3.238000000     2.890000000
H    -7.114000000    -2.716000000     3.647000000
H    -6.313000000    -2.645000000     2.365000000
O    -2.005000000    -6.436000000     0.185000000
H    -2.483000000    -6.916000000     0.861000000
H    -2.585000000    -6.456000000    -0.577000000
O    -4.869000000    -3.527000000    -0.949000000
H    -5.825000000    -3.545000000    -0.904000000
H    -4.592000000    -3.318000000    -0.057000000
O    -7.963000000    -0.992000000     4.414000000
H    -7.212000000    -0.853000000     4.991000000
H    -8.699000000    -1.134000000     5.010000000
O    -8.578000000    -3.749000000     0.087000000
H    -8.023000000    -2.971000000     0.038000000
H    -8.361000000    -4.145000000     0.931000000
O    -1.673000000    -3.120000000     4.514000000
H    -2.409000000    -2.597000000     4.194000000
H    -1.380000000    -3.614000000     3.748000000
O    -5.242000000    -2.307000000     5.498000000
H    -4.651000000    -2.185000000     4.755000000
H    -5.377000000    -1.425000000     5.844000000
