215
-1469.48719
C    -2.835000000     1.975000000     3.344000000
H    -3.313000000     2.358000000     2.445000000
C    -1.510000000     2.384000000     3.691000000
C    -0.964000000     1.972000000     4.964000000
H    -0.049000000     2.363000000     5.401000000
C    -0.638000000     3.261000000     2.810000000
O    -1.386000000     4.404000000     2.221000000
H    -0.271000000     2.668000000     1.959000000
O     0.496000000     3.754000000     3.392000000
C     1.664000000     3.705000000     2.694000000
C     2.406000000     2.637000000     3.145000000
H     2.063000000     2.033000000     3.981000000
C     3.510000000     2.269000000     2.376000000
O     4.037000000     1.029000000     2.711000000
C     3.917000000     3.015000000     1.240000000
C     4.970000000     2.545000000     0.251000000
H     5.406000000     3.373000000    -0.311000000
C     4.488000000     1.548000000    -0.744000000
C     4.102000000     2.068000000    -2.026000000
H     4.109000000     3.138000000    -2.216000000
H     5.781000000     2.194000000     0.892000000
C     3.141000000     4.141000000     0.871000000
H     3.423000000     4.724000000    -0.002000000
C     1.931000000     4.410000000     1.534000000
C     0.990000000     5.561000000     1.073000000
H     1.538000000     6.189000000     0.367000000
H     0.777000000     6.139000000     1.975000000
C    -0.234000000     5.044000000     0.286000000
C    -0.122000000     4.832000000    -1.152000000
H     0.802000000     5.063000000    -1.676000000
C    -1.325000000     4.457000000     0.862000000
C    -2.367000000     3.867000000     0.108000000
H    -3.209000000     3.387000000     0.600000000
C    -2.218000000     3.653000000    -1.243000000
O    -3.111000000     2.941000000    -1.999000000
C    -2.774000000     1.545000000    -2.490000000
C    -4.002000000     0.709000000    -2.347000000
C    -4.101000000    -0.495000000    -3.070000000
H    -3.316000000    -0.839000000    -3.739000000
C    -4.997000000     1.004000000    -1.388000000
H    -4.935000000     1.880000000    -0.747000000
O    -2.386000000     1.670000000    -3.902000000
H    -2.066000000     1.035000000    -1.820000000
C    -1.128000000     4.254000000    -1.938000000
C    -0.955000000     4.242000000    -3.425000000
H    -0.469000000     5.139000000    -3.814000000
H    -1.969000000     4.426000000    -3.788000000
C    -0.280000000     2.968000000    -3.906000000
C     1.117000000     2.934000000    -4.080000000
H     1.697000000     3.799000000    -3.769000000
C    -1.025000000     1.793000000    -4.172000000
C    -0.324000000     0.653000000    -4.646000000
H    -0.888000000    -0.254000000    -4.848000000
C     1.055000000     0.606000000    -4.759000000
O     1.590000000    -0.615000000    -4.975000000
C     1.889000000    -1.328000000    -3.791000000
C     1.479000000    -2.806000000    -3.881000000
C     0.247000000    -3.142000000    -4.429000000
H    -0.325000000    -2.389000000    -4.966000000
C     2.269000000    -3.808000000    -3.256000000
H     3.219000000    -3.493000000    -2.832000000
O     3.351000000    -1.205000000    -3.615000000
H     1.270000000    -1.051000000    -2.925000000
C     1.796000000     1.753000000    -4.418000000
C     3.306000000     1.664000000    -4.307000000
H     3.700000000     2.661000000    -4.517000000
H     3.575000000     0.997000000    -5.129000000
C     3.758000000     1.144000000    -3.000000000
C     3.726000000    -0.231000000    -2.703000000
C     4.080000000    -0.680000000    -1.414000000
H     3.998000000    -1.755000000    -1.273000000
C     4.434000000     0.218000000    -0.448000000
O     4.661000000    -0.222000000     0.860000000
C     3.661000000    -0.096000000     1.872000000
H     2.699000000     0.028000000     1.353000000
C     3.522000000    -1.321000000     2.688000000
C     3.080000000    -1.259000000     4.031000000
H     3.054000000    -0.309000000     4.558000000
C     3.602000000    -2.592000000     2.112000000
H     3.983000000    -2.658000000     1.096000000
C     3.282000000    -3.771000000     2.803000000
O     3.357000000    -5.033000000     2.215000000
C     2.895000000    -3.659000000     4.152000000
H     2.786000000    -4.537000000     4.784000000
C     2.883000000    -2.396000000     4.804000000
O     2.691000000    -2.279000000     6.166000000
C     2.103000000    -1.201000000     6.758000000
C     0.821000000    -0.715000000     6.352000000
H     0.300000000    -1.103000000     5.481000000
C     2.651000000    -0.712000000     7.964000000
H     3.625000000    -0.980000000     8.364000000
C     2.010000000     0.304000000     8.689000000
H     2.451000000     0.821000000     9.538000000
C     0.753000000     0.769000000     8.240000000
H     0.185000000     1.547000000     8.745000000
C     0.120000000     0.261000000     7.149000000
O    -1.178000000     0.716000000     6.973000000
C    -1.726000000     1.099000000     5.745000000
C    -3.017000000     0.711000000     5.439000000
H    -3.643000000     0.048000000     6.031000000
C    -3.499000000     1.088000000     4.216000000
O    -4.677000000     0.504000000     3.866000000
C    -5.620000000     1.041000000     3.039000000
C    -5.833000000     0.575000000     1.684000000
H    -5.088000000    -0.100000000     1.270000000
C    -6.578000000     1.898000000     3.605000000
H    -6.442000000     2.336000000     4.591000000
C    -7.665000000     2.292000000     2.773000000
H    -8.391000000     2.950000000     3.243000000
C    -7.820000000     1.773000000     1.493000000
H    -8.703000000     2.022000000     0.910000000
C    -6.900000000     0.976000000     0.903000000
O    -7.070000000     0.572000000    -0.409000000
C    -6.076000000     0.145000000    -1.242000000
C    -6.192000000    -0.955000000    -2.066000000
H    -7.106000000    -1.544000000    -2.073000000
C    -5.137000000    -1.337000000    -2.870000000
O    -5.262000000    -2.542000000    -3.504000000
C    -4.399000000    -2.944000000    -4.479000000
C    -3.217000000    -3.631000000    -4.146000000
H    -2.924000000    -3.736000000    -3.104000000
C    -4.797000000    -2.798000000    -5.842000000
H    -5.699000000    -2.238000000    -6.075000000
C    -4.095000000    -3.428000000    -6.893000000
H    -4.511000000    -3.452000000    -7.896000000
C    -2.994000000    -4.128000000    -6.520000000
H    -2.304000000    -4.592000000    -7.220000000
C    -2.460000000    -4.175000000    -5.204000000
O    -1.325000000    -4.906000000    -4.914000000
C    -0.175000000    -4.474000000    -4.322000000
C     0.599000000    -5.462000000    -3.633000000
H     0.320000000    -6.511000000    -3.586000000
C     1.814000000    -5.111000000    -3.169000000
O     2.433000000    -6.042000000    -2.447000000
C     3.337000000    -5.870000000    -1.433000000
C     4.659000000    -6.080000000    -1.723000000
H     5.085000000    -6.290000000    -2.700000000
C     5.533000000    -5.904000000    -0.633000000
H     6.608000000    -5.895000000    -0.793000000
C     5.098000000    -5.701000000     0.663000000
H     5.762000000    -5.858000000     1.509000000
C     3.755000000    -5.339000000     0.945000000
C     2.864000000    -5.449000000    -0.145000000
H     1.818000000    -5.213000000     0.031000000
C    -1.481000000    -2.334000000    -0.412000000
H    -2.084000000    -2.973000000    -1.053000000
C    -0.677000000    -1.325000000    -0.951000000
H    -0.633000000    -1.221000000    -2.033000000
C    -0.069000000    -0.318000000    -0.187000000
H     0.445000000     0.503000000    -0.644000000
C    -0.318000000    -0.267000000     1.176000000
H    -0.045000000     0.651000000     1.691000000
C    -1.042000000    -1.298000000     1.752000000
H    -1.265000000    -1.272000000     2.816000000
C    -1.639000000    -2.301000000     0.974000000
C    -2.561000000    -3.242000000     1.698000000
O    -2.596000000    -3.235000000     2.896000000
O    -3.086000000    -4.164000000     1.103000000
O    -2.732000000    -2.512000000     7.250000000
H    -2.333000000    -2.307000000     8.096000000
H    -3.491000000    -3.052000000     7.468000000
O    -2.984000000    -7.138000000     1.106000000
H    -2.830000000    -6.408000000     0.507000000
H    -3.391000000    -7.812000000     0.562000000
O    -4.468000000    -4.820000000    -1.041000000
H    -5.142000000    -4.151000000    -0.925000000
H    -3.864000000    -4.680000000    -0.312000000
O    -6.172000000    -7.533000000     1.622000000
H    -5.781000000    -7.962000000     2.383000000
H    -6.071000000    -8.166000000     0.912000000
O     0.140000000    -3.744000000     7.581000000
H     1.002000000    -3.832000000     7.174000000
H    -0.476000000    -3.788000000     6.850000000
O    -5.457000000    -4.736000000     2.215000000
H    -4.573000000    -4.511000000     1.926000000
H    -5.533000000    -5.674000000     2.042000000
O    -4.700000000    -4.608000000     5.601000000
H    -4.860000000    -3.775000000     5.158000000
H    -4.034000000    -5.040000000     5.066000000
O    -6.661000000    -3.505000000     0.127000000
H    -6.058000000    -3.998000000     0.682000000
H    -6.984000000    -2.801000000     0.690000000
O     0.149000000    -4.208000000     2.654000000
H    -0.189000000    -3.985000000     3.521000000
H    -0.254000000    -3.568000000     2.068000000
O    -7.545000000    -1.947000000     5.491000000
H    -7.259000000    -2.399000000     6.285000000
H    -7.243000000    -2.506000000     4.775000000
O    -8.035000000    -4.617000000     3.341000000
H    -7.128000000    -4.918000000     3.284000000
H    -8.159000000    -4.079000000     2.560000000
O     0.760000000    -8.056000000    -1.338000000
H     1.696000000    -7.947000000    -1.174000000
H     0.334000000    -7.604000000    -0.609000000
O    -2.940000000    -6.159000000     3.824000000
H    -2.576000000    -5.303000000     3.599000000
H    -2.788000000    -6.696000000     3.047000000
O     1.398000000    -6.757000000     4.186000000
H     1.503000000    -5.888000000     3.799000000
H     1.241000000    -7.335000000     3.439000000
O    -5.207000000    -6.786000000    -2.875000000
H    -4.394000000    -7.070000000    -3.293000000
H    -4.921000000    -6.256000000    -2.130000000
O    -0.076000000    -6.643000000     0.908000000
H    -0.084000000    -5.796000000     1.353000000
H    -0.387000000    -7.263000000     1.568000000
O    -3.929000000    -8.387000000     5.353000000
H    -3.835000000    -7.583000000     4.841000000
H    -3.329000000    -8.273000000     6.090000000
O    -1.211000000    -3.176000000     5.093000000
H    -1.646000000    -3.421000000     4.276000000
H    -1.925000000    -2.916000000     5.675000000
O    -4.825000000    -2.344000000     4.182000000
H    -4.088000000    -2.671000000     3.667000000
H    -4.708000000    -1.394000000     4.193000000
