215
-1448.62733
C    -3.569000000     1.900000000     3.140000000
H    -3.894000000     2.684000000     2.460000000
C    -2.252000000     1.865000000     3.615000000
C    -1.904000000     0.832000000     4.537000000
H    -0.862000000     0.547000000     4.655000000
C    -1.190000000     2.756000000     2.986000000
O    -1.658000000     3.988000000     2.508000000
H    -0.851000000     2.220000000     2.087000000
O    -0.093000000     2.894000000     3.893000000
C     1.192000000     2.922000000     3.447000000
C     1.909000000     1.863000000     3.819000000
H     1.385000000     1.162000000     4.464000000
C     3.172000000     1.563000000     3.282000000
O     3.658000000     0.318000000     3.535000000
C     3.753000000     2.467000000     2.383000000
C     5.010000000     2.077000000     1.580000000
H     5.475000000     2.985000000     1.190000000
C     4.721000000     1.229000000     0.331000000
C     4.613000000     1.777000000    -0.928000000
H     4.645000000     2.855000000    -1.060000000
H     5.749000000     1.521000000     2.161000000
C     3.056000000     3.642000000     2.051000000
H     3.559000000     4.379000000     1.431000000
C     1.776000000     3.874000000     2.584000000
C     0.963000000     5.082000000     2.163000000
H     1.621000000     5.902000000     1.869000000
H     0.400000000     5.461000000     3.019000000
C     0.058000000     4.769000000     0.990000000
C     0.527000000     4.834000000    -0.345000000
H     1.552000000     5.097000000    -0.594000000
C    -1.254000000     4.350000000     1.252000000
C    -2.091000000     4.026000000     0.195000000
H    -3.101000000     3.656000000     0.350000000
C    -1.740000000     4.185000000    -1.130000000
O    -2.484000000     3.754000000    -2.159000000
C    -2.180000000     2.454000000    -2.706000000
C    -3.472000000     1.595000000    -2.880000000
C    -3.615000000     0.726000000    -3.981000000
H    -2.827000000     0.711000000    -4.730000000
C    -4.593000000     1.643000000    -2.090000000
H    -4.617000000     2.232000000    -1.177000000
O    -1.512000000     2.603000000    -3.994000000
H    -1.423000000     1.999000000    -2.050000000
C    -0.429000000     4.642000000    -1.387000000
C     0.084000000     4.730000000    -2.866000000
H     0.808000000     5.544000000    -2.947000000
H    -0.711000000     5.124000000    -3.501000000
C     0.666000000     3.454000000    -3.390000000
C     2.070000000     3.182000000    -3.258000000
H     2.539000000     4.012000000    -2.737000000
C    -0.107000000     2.486000000    -3.986000000
C     0.466000000     1.238000000    -4.393000000
H    -0.217000000     0.502000000    -4.809000000
C     1.767000000     0.961000000    -4.197000000
O     2.112000000    -0.338000000    -4.524000000
C     2.371000000    -1.108000000    -3.370000000
C     1.849000000    -2.540000000    -3.510000000
C     0.525000000    -2.713000000    -3.907000000
H    -0.100000000    -1.878000000    -4.213000000
C     2.467000000    -3.637000000    -3.028000000
H     3.466000000    -3.508000000    -2.621000000
O     3.749000000    -1.150000000    -3.004000000
H     1.917000000    -0.584000000    -2.515000000
C     2.641000000     1.984000000    -3.666000000
C     4.073000000     1.671000000    -3.425000000
H     4.594000000     2.625000000    -3.531000000
H     4.510000000     1.035000000    -4.198000000
C     4.232000000     0.989000000    -2.036000000
C     4.181000000    -0.412000000    -1.910000000
C     4.301000000    -0.959000000    -0.676000000
H     4.202000000    -2.039000000    -0.612000000
C     4.461000000    -0.171000000     0.433000000
O     4.487000000    -0.810000000     1.709000000
C     3.350000000    -0.668000000     2.491000000
H     2.544000000    -0.279000000     1.852000000
C     2.916000000    -2.020000000     3.021000000
C     2.367000000    -2.123000000     4.316000000
H     2.170000000    -1.205000000     4.864000000
C     3.030000000    -3.146000000     2.230000000
H     3.356000000    -3.053000000     1.197000000
C     2.721000000    -4.403000000     2.737000000
O     2.938000000    -5.580000000     2.032000000
C     2.345000000    -4.535000000     4.031000000
H     2.193000000    -5.526000000     4.452000000
C     2.033000000    -3.394000000     4.813000000
O     1.598000000    -3.574000000     6.089000000
C     0.689000000    -2.706000000     6.645000000
C    -0.456000000    -2.418000000     5.900000000
H    -0.700000000    -2.920000000     4.967000000
C     0.980000000    -1.964000000     7.717000000
H     1.962000000    -1.924000000     8.180000000
C     0.038000000    -1.038000000     8.228000000
H     0.311000000    -0.396000000     9.062000000
C    -1.157000000    -0.742000000     7.531000000
H    -1.863000000     0.039000000     7.803000000
C    -1.375000000    -1.497000000     6.321000000
O    -2.466000000    -1.298000000     5.552000000
C    -2.852000000    -0.123000000     4.957000000
C    -4.185000000     0.044000000     4.595000000
H    -4.905000000    -0.723000000     4.871000000
C    -4.521000000     0.993000000     3.645000000
O    -5.793000000     0.847000000     3.007000000
C    -6.265000000     1.575000000     1.986000000
C    -6.201000000     0.965000000     0.733000000
H    -5.651000000     0.041000000     0.574000000
C    -7.030000000     2.711000000     2.191000000
H    -7.046000000     3.094000000     3.209000000
C    -7.685000000     3.391000000     1.101000000
H    -8.129000000     4.381000000     1.171000000
C    -7.551000000     2.799000000    -0.140000000
H    -7.933000000     3.281000000    -1.036000000
C    -6.857000000     1.609000000    -0.306000000
O    -6.845000000     1.043000000    -1.548000000
C    -5.742000000     0.906000000    -2.400000000
C    -5.855000000     0.092000000    -3.485000000
H    -6.726000000    -0.529000000    -3.681000000
C    -4.723000000    -0.004000000    -4.285000000
O    -4.764000000    -0.948000000    -5.271000000
C    -3.656000000    -1.690000000    -5.673000000
C    -3.186000000    -2.702000000    -4.862000000
H    -3.630000000    -2.751000000    -3.871000000
C    -3.103000000    -1.543000000    -6.893000000
H    -3.435000000    -0.734000000    -7.540000000
C    -1.989000000    -2.253000000    -7.291000000
H    -1.452000000    -2.020000000    -8.207000000
C    -1.446000000    -3.176000000    -6.477000000
H    -0.600000000    -3.745000000    -6.854000000
C    -2.033000000    -3.356000000    -5.223000000
O    -1.405000000    -4.141000000    -4.295000000
C    -0.056000000    -3.982000000    -3.968000000
C     0.559000000    -5.090000000    -3.437000000
H     0.150000000    -6.096000000    -3.492000000
C     1.847000000    -4.930000000    -3.007000000
O     2.597000000    -6.027000000    -2.650000000
C     3.407000000    -5.940000000    -1.554000000
C     4.756000000    -5.788000000    -1.603000000
H     5.222000000    -5.546000000    -2.556000000
C     5.491000000    -5.558000000    -0.526000000
H     6.562000000    -5.441000000    -0.666000000
C     4.915000000    -5.508000000     0.707000000
H     5.572000000    -5.338000000     1.556000000
C     3.537000000    -5.641000000     0.835000000
C     2.803000000    -5.778000000    -0.297000000
H     1.746000000    -5.972000000    -0.136000000
C    -1.242000000    -2.819000000    -0.866000000
H    -1.723000000    -3.414000000    -1.637000000
C    -1.099000000    -1.463000000    -1.227000000
H    -1.441000000    -1.114000000    -2.198000000
C    -0.396000000    -0.526000000    -0.444000000
H     0.001000000     0.392000000    -0.805000000
C     0.085000000    -0.977000000     0.809000000
H     0.793000000    -0.424000000     1.420000000
C    -0.188000000    -2.288000000     1.165000000
H     0.316000000    -2.642000000     2.060000000
C    -0.736000000    -3.245000000     0.376000000
C    -0.942000000    -4.696000000     0.988000000
O    -1.093000000    -4.894000000     2.176000000
O    -1.170000000    -5.664000000     0.178000000
O    -0.570000000   -10.340000000    -2.070000000
H    -1.072000000   -10.822000000    -2.727000000
H    -0.959000000    -9.465000000    -2.066000000
O    -2.702000000    -2.665000000     2.982000000
H    -1.936000000    -3.234000000     2.906000000
H    -2.564000000    -2.186000000     3.799000000
O    -4.686000000    -3.654000000    -0.997000000
H    -4.652000000    -2.886000000    -0.427000000
H    -4.353000000    -4.370000000    -0.455000000
O    -6.979000000    -5.084000000     1.312000000
H    -7.001000000    -5.660000000     2.076000000
H    -6.544000000    -4.290000000     1.624000000
O    -4.100000000    -5.748000000     0.397000000
H    -3.280000000    -5.733000000    -0.097000000
H    -3.827000000    -5.817000000     1.312000000
O    -3.738000000    -9.638000000     0.245000000
H    -4.204000000    -9.296000000     1.008000000
H    -2.868000000    -9.860000000     0.576000000
O     1.229000000    -8.976000000     0.070000000
H     0.645000000    -9.180000000    -0.661000000
H     2.097000000    -8.915000000    -0.328000000
O    -1.224000000    -7.665000000    -1.558000000
H    -1.306000000    -6.926000000    -0.955000000
H    -1.993000000    -7.598000000    -2.124000000
O    -2.452000000    -8.815000000     4.577000000
H    -1.518000000    -8.650000000     4.705000000
H    -2.849000000    -7.944000000     4.558000000
O    -0.079000000    -7.438000000     1.850000000
H     0.339000000    -7.591000000     1.003000000
H    -0.506000000    -6.586000000     1.755000000
O    -3.357000000    -6.262000000     3.046000000
H    -2.530000000    -5.834000000     2.823000000
H    -3.763000000    -5.678000000     3.687000000
O     3.136000000    -8.735000000     2.466000000
H     2.655000000    -8.098000000     1.938000000
H     3.093000000    -9.546000000     1.960000000
O    -1.297000000   -10.066000000     1.409000000
H    -0.464000000   -10.262000000     0.981000000
H    -1.243000000    -9.134000000     1.623000000
O     0.099000000    -7.992000000     4.433000000
H     0.121000000    -7.924000000     3.479000000
H     0.838000000    -8.561000000     4.650000000
O    -3.545000000    -1.745000000     0.676000000
H    -2.693000000    -1.498000000     0.318000000
H    -3.338000000    -2.230000000     1.474000000
O    -5.037000000    -4.234000000     4.198000000
H    -4.612000000    -4.018000000     5.029000000
H    -4.738000000    -3.556000000     3.593000000
O    -4.971000000    -4.796000000    -3.247000000
H    -4.890000000    -4.342000000    -2.408000000
H    -4.458000000    -5.597000000    -3.137000000
O    -4.809000000    -8.661000000     2.453000000
H    -4.461000000    -7.772000000     2.520000000
H    -5.093000000    -8.875000000     3.342000000
O    -0.834000000    -5.423000000     4.889000000
H    -1.011000000    -5.001000000     4.049000000
H    -0.484000000    -6.283000000     4.655000000
