215
-1449.34194
C    -4.087000000     1.933000000     2.264000000
H    -4.084000000     2.335000000     1.254000000
C    -2.873000000     2.198000000     2.970000000
C    -2.645000000     1.629000000     4.238000000
H    -1.692000000     1.854000000     4.710000000
C    -1.768000000     2.960000000     2.285000000
O    -2.253000000     3.945000000     1.351000000
H    -1.118000000     2.239000000     1.767000000
O    -0.926000000     3.639000000     3.179000000
C     0.463000000     3.528000000     2.988000000
C     1.193000000     2.550000000     3.721000000
H     0.664000000     1.907000000     4.421000000
C     2.551000000     2.195000000     3.410000000
O     2.923000000     0.989000000     3.896000000
C     3.169000000     2.881000000     2.398000000
C     4.582000000     2.545000000     1.936000000
H     5.050000000     3.499000000     1.686000000
C     4.498000000     1.520000000     0.796000000
C     4.502000000     1.925000000    -0.545000000
H     4.554000000     2.997000000    -0.721000000
H     5.136000000     2.133000000     2.782000000
C     2.494000000     3.886000000     1.649000000
H     3.132000000     4.453000000     0.975000000
C     1.136000000     4.200000000     1.940000000
C     0.473000000     5.317000000     1.172000000
H     1.236000000     5.945000000     0.707000000
H    -0.163000000     5.903000000     1.837000000
C    -0.288000000     4.643000000    -0.010000000
C     0.288000000     4.607000000    -1.286000000
H     1.260000000     5.073000000    -1.423000000
C    -1.576000000     4.060000000     0.144000000
C    -2.242000000     3.504000000    -0.912000000
H    -3.198000000     3.022000000    -0.724000000
C    -1.695000000     3.575000000    -2.185000000
O    -2.319000000     2.809000000    -3.165000000
C    -1.833000000     1.460000000    -3.287000000
C    -3.075000000     0.534000000    -3.482000000
C    -2.984000000    -0.569000000    -4.315000000
H    -1.994000000    -0.777000000    -4.714000000
C    -4.246000000     0.812000000    -2.768000000
H    -4.280000000     1.663000000    -2.092000000
O    -0.943000000     1.494000000    -4.486000000
H    -1.305000000     0.985000000    -2.447000000
C    -0.434000000     4.109000000    -2.420000000
C     0.230000000     3.979000000    -3.773000000
H     0.810000000     4.876000000    -3.999000000
H    -0.544000000     4.089000000    -4.535000000
C     1.078000000     2.717000000    -3.922000000
C     2.466000000     2.763000000    -3.664000000
H     2.907000000     3.684000000    -3.290000000
C     0.397000000     1.552000000    -4.300000000
C     1.143000000     0.403000000    -4.425000000
H     0.614000000    -0.457000000    -4.828000000
C     2.513000000     0.414000000    -4.176000000
O     3.196000000    -0.732000000    -4.132000000
C     3.152000000    -1.497000000    -2.865000000
C     2.755000000    -2.973000000    -3.060000000
C     1.816000000    -3.348000000    -4.094000000
H     1.481000000    -2.617000000    -4.826000000
C     3.116000000    -3.887000000    -2.155000000
H     3.693000000    -3.634000000    -1.269000000
O     4.426000000    -1.356000000    -2.264000000
H     2.420000000    -0.972000000    -2.233000000
C     3.178000000     1.545000000    -3.722000000
C     4.596000000     1.473000000    -3.055000000
H     5.046000000     2.467000000    -3.100000000
H     5.273000000     0.895000000    -3.687000000
C     4.597000000     0.976000000    -1.587000000
C     4.525000000    -0.397000000    -1.259000000
C     4.360000000    -0.763000000     0.031000000
H     4.347000000    -1.843000000     0.154000000
C     4.323000000     0.147000000     1.114000000
O     4.019000000    -0.443000000     2.303000000
C     2.862000000    -0.129000000     3.049000000
H     2.122000000     0.155000000     2.286000000
C     2.398000000    -1.349000000     3.810000000
C     1.702000000    -1.189000000     4.988000000
H     1.702000000    -0.251000000     5.538000000
C     2.525000000    -2.624000000     3.233000000
H     3.040000000    -2.773000000     2.287000000
C     1.998000000    -3.754000000     3.896000000
O     2.238000000    -4.991000000     3.484000000
C     1.172000000    -3.576000000     4.964000000
H     0.605000000    -4.348000000     5.478000000
C     0.974000000    -2.304000000     5.486000000
O     0.180000000    -2.094000000     6.543000000
C    -0.398000000    -0.932000000     6.908000000
C    -1.732000000    -0.836000000     6.452000000
H    -2.160000000    -1.594000000     5.802000000
C     0.231000000    -0.028000000     7.717000000
H     1.192000000    -0.397000000     8.067000000
C    -0.388000000     1.193000000     7.955000000
H     0.240000000     1.947000000     8.422000000
C    -1.733000000     1.359000000     7.592000000
H    -2.247000000     2.312000000     7.692000000
C    -2.365000000     0.367000000     6.826000000
O    -3.582000000     0.554000000     6.167000000
C    -3.736000000     1.087000000     4.893000000
C    -4.927000000     0.852000000     4.299000000
H    -5.815000000     0.478000000     4.803000000
C    -5.081000000     1.240000000     2.967000000
O    -6.258000000     0.962000000     2.374000000
C    -6.671000000     1.384000000     1.110000000
C    -6.544000000     0.559000000     0.000000000
H    -6.227000000    -0.477000000     0.090000000
C    -6.909000000     2.705000000     0.866000000
H    -6.911000000     3.378000000     1.720000000
C    -7.127000000     3.276000000    -0.374000000
H    -7.381000000     4.331000000    -0.433000000
C    -7.099000000     2.443000000    -1.492000000
H    -7.231000000     2.835000000    -2.497000000
C    -6.719000000     1.097000000    -1.280000000
O    -6.514000000     0.208000000    -2.281000000
C    -5.284000000    -0.047000000    -2.886000000
C    -5.157000000    -1.235000000    -3.629000000
H    -5.890000000    -2.037000000    -3.588000000
C    -4.010000000    -1.459000000    -4.366000000
O    -3.863000000    -2.611000000    -5.145000000
C    -2.677000000    -3.009000000    -5.645000000
C    -1.753000000    -3.765000000    -4.945000000
H    -2.074000000    -4.165000000    -3.986000000
C    -2.313000000    -2.661000000    -6.977000000
H    -3.074000000    -2.019000000    -7.413000000
C    -1.056000000    -3.024000000    -7.497000000
H    -0.704000000    -2.706000000    -8.475000000
C    -0.206000000    -3.820000000    -6.810000000
H     0.779000000    -4.015000000    -7.226000000
C    -0.547000000    -4.245000000    -5.524000000
O     0.274000000    -5.063000000    -4.846000000
C     1.263000000    -4.617000000    -4.068000000
C     1.629000000    -5.538000000    -3.086000000
H     1.077000000    -6.473000000    -3.136000000
C     2.555000000    -5.219000000    -2.150000000
O     2.818000000    -6.129000000    -1.131000000
C     3.445000000    -5.777000000     0.114000000
C     4.789000000    -5.907000000     0.363000000
H     5.304000000    -6.332000000    -0.495000000
C     5.359000000    -5.777000000     1.624000000
H     6.434000000    -5.783000000     1.786000000
C     4.438000000    -5.451000000     2.680000000
H     4.746000000    -5.195000000     3.691000000
C     3.081000000    -5.308000000     2.402000000
C     2.517000000    -5.453000000     1.136000000
H     1.457000000    -5.363000000     0.915000000
C    -0.869000000    -3.532000000     0.373000000
H    -0.992000000    -4.451000000    -0.193000000
C    -0.318000000    -2.466000000    -0.271000000
H    -0.093000000    -2.441000000    -1.335000000
C     0.109000000    -1.339000000     0.442000000
H     0.639000000    -0.550000000    -0.005000000
C    -0.264000000    -1.179000000     1.733000000
H    -0.121000000    -0.261000000     2.298000000
C    -0.879000000    -2.256000000     2.389000000
H    -1.238000000    -2.138000000     3.408000000
C    -1.236000000    -3.465000000     1.700000000
C    -2.072000000    -4.462000000     2.411000000
O    -2.695000000    -4.246000000     3.434000000
O    -2.188000000    -5.590000000     1.913000000
O    -3.620000000    -4.790000000     8.473000000
H    -3.083000000    -4.728000000     7.683000000
H    -4.477000000    -5.078000000     8.158000000
O    -2.659000000    -4.475000000     6.047000000
H    -1.779000000    -4.850000000     6.055000000
H    -2.896000000    -4.442000000     5.120000000
O    -7.586000000    -2.572000000     2.805000000
H    -6.663000000    -2.410000000     3.000000000
H    -8.049000000    -1.841000000     3.214000000
O    -0.277000000    -5.602000000     7.516000000
H     0.677000000    -5.669000000     7.469000000
H    -0.511000000    -6.072000000     8.316000000
O    -2.219000000    -6.700000000    -1.742000000
H    -2.768000000    -7.091000000    -1.063000000
H    -2.427000000    -5.766000000    -1.710000000
O    -5.053000000    -2.259000000     6.174000000
H    -4.392000000    -2.894000000     6.450000000
H    -4.985000000    -2.242000000     5.219000000
O    -4.171000000    -4.228000000    -1.714000000
H    -4.195000000    -4.101000000    -2.663000000
H    -5.030000000    -3.934000000    -1.411000000
O    -3.098000000    -0.898000000     0.558000000
H    -2.693000000    -1.512000000    -0.055000000
H    -2.483000000    -0.850000000     1.290000000
O    -4.044000000    -7.080000000     0.383000000
H    -3.474000000    -6.524000000     0.914000000
H    -4.923000000    -6.918000000     0.726000000
O    -0.506000000    -7.553000000     1.033000000
H    -0.985000000    -8.058000000     0.376000000
H    -1.043000000    -6.773000000     1.174000000
O     2.472000000    -6.136000000     6.612000000
H     2.412000000    -6.387000000     5.690000000
H     2.571000000    -6.965000000     7.081000000
O     2.353000000    -7.761000000     3.438000000
H     1.556000000    -8.291000000     3.462000000
H     2.812000000    -8.056000000     2.651000000
O    -0.065000000    -9.534000000     2.989000000
H    -0.819000000   -10.120000000     3.050000000
H    -0.417000000    -8.730000000     2.605000000
O    -5.597000000    -5.783000000     3.344000000
H    -5.381000000    -4.851000000     3.371000000
H    -6.077000000    -5.894000000     2.522000000
O    -1.631000000    -7.969000000     6.277000000
H    -1.118000000    -7.188000000     6.487000000
H    -1.882000000    -7.852000000     5.361000000
O    -6.986000000    -7.639000000     5.031000000
H    -6.538000000    -6.878000000     4.663000000
H    -6.393000000    -8.371000000     4.863000000
O    -4.817000000    -2.864000000     3.251000000
H    -4.661000000    -2.450000000     2.402000000
H    -3.986000000    -3.285000000     3.468000000
O    -6.853000000    -5.493000000     1.042000000
H    -6.477000000    -5.070000000     0.270000000
H    -7.353000000    -4.801000000     1.475000000
O    -3.302000000    -7.220000000     3.805000000
H    -2.861000000    -6.656000000     3.168000000
H    -4.151000000    -6.801000000     3.948000000
