215
-1457.09298
C    -3.934000000     2.011000000     2.559000000
H    -3.939000000     2.456000000     1.567000000
C    -2.733000000     2.044000000     3.393000000
C    -2.674000000     1.391000000     4.609000000
H    -1.739000000     1.411000000     5.164000000
C    -1.544000000     2.816000000     2.838000000
O    -2.012000000     3.969000000     2.135000000
H    -1.065000000     2.123000000     2.131000000
O    -0.567000000     3.170000000     3.784000000
C     0.776000000     2.932000000     3.360000000
C     1.480000000     1.798000000     3.846000000
H     0.939000000     1.245000000     4.610000000
C     2.767000000     1.499000000     3.421000000
O     3.278000000     0.240000000     3.736000000
C     3.351000000     2.403000000     2.567000000
C     4.765000000     2.071000000     2.008000000
H     5.185000000     3.050000000     1.766000000
C     4.756000000     1.130000000     0.831000000
C     4.703000000     1.695000000    -0.477000000
H     4.880000000     2.761000000    -0.589000000
H     5.385000000     1.524000000     2.721000000
C     2.720000000     3.628000000     2.162000000
H     3.291000000     4.295000000     1.521000000
C     1.444000000     3.895000000     2.561000000
C     0.718000000     5.136000000     2.090000000
H     1.354000000     6.021000000     2.010000000
H     0.063000000     5.469000000     2.898000000
C    -0.114000000     4.834000000     0.872000000
C     0.447000000     4.973000000    -0.399000000
H     1.472000000     5.291000000    -0.570000000
C    -1.354000000     4.320000000     1.006000000
C    -2.141000000     4.128000000    -0.153000000
H    -3.108000000     3.657000000     0.004000000
C    -1.607000000     4.207000000    -1.450000000
O    -2.361000000     3.720000000    -2.569000000
C    -1.925000000     2.416000000    -3.035000000
C    -3.070000000     1.481000000    -3.398000000
C    -2.932000000     0.431000000    -4.337000000
H    -2.012000000     0.247000000    -4.886000000
C    -4.244000000     1.646000000    -2.678000000
H    -4.303000000     2.351000000    -1.853000000
O    -0.973000000     2.629000000    -4.152000000
H    -1.317000000     1.967000000    -2.237000000
C    -0.274000000     4.620000000    -1.561000000
C     0.448000000     4.618000000    -2.922000000
H     1.166000000     5.440000000    -2.902000000
H    -0.269000000     4.921000000    -3.687000000
C     1.128000000     3.312000000    -3.280000000
C     2.491000000     3.011000000    -3.032000000
H     3.128000000     3.687000000    -2.468000000
C     0.367000000     2.367000000    -3.956000000
C     0.914000000     1.087000000    -4.340000000
H     0.364000000     0.324000000    -4.884000000
C     2.223000000     0.841000000    -3.959000000
O     2.684000000    -0.471000000    -4.166000000
C     2.876000000    -1.289000000    -3.002000000
C     2.450000000    -2.726000000    -3.290000000
C     1.240000000    -2.990000000    -3.925000000
H     0.560000000    -2.178000000    -4.168000000
C     3.205000000    -3.804000000    -2.779000000
H     4.180000000    -3.641000000    -2.326000000
O     4.213000000    -1.282000000    -2.533000000
H     2.288000000    -0.838000000    -2.189000000
C     3.056000000     1.821000000    -3.368000000
C     4.483000000     1.580000000    -2.999000000
H     4.960000000     2.563000000    -2.992000000
H     4.947000000     0.946000000    -3.757000000
C     4.538000000     0.942000000    -1.601000000
C     4.480000000    -0.429000000    -1.472000000
C     4.499000000    -0.988000000    -0.230000000
H     4.397000000    -2.065000000    -0.120000000
C     4.565000000    -0.263000000     0.928000000
O     4.404000000    -0.906000000     2.122000000
C     3.147000000    -0.763000000     2.771000000
H     2.453000000    -0.500000000     1.960000000
C     2.521000000    -2.091000000     3.429000000
C     1.683000000    -2.093000000     4.613000000
H     1.421000000    -1.182000000     5.145000000
C     2.564000000    -3.230000000     2.663000000
H     2.997000000    -3.234000000     1.666000000
C     1.923000000    -4.404000000     3.112000000
O     2.001000000    -5.465000000     2.232000000
C     1.272000000    -4.495000000     4.314000000
H     0.741000000    -5.357000000     4.709000000
C     0.961000000    -3.279000000     4.979000000
O    -0.035000000    -3.329000000     5.987000000
C    -0.710000000    -2.217000000     6.503000000
C    -1.950000000    -1.776000000     6.093000000
H    -2.372000000    -2.249000000     5.210000000
C    -0.128000000    -1.617000000     7.603000000
H     0.827000000    -2.004000000     7.950000000
C    -0.639000000    -0.510000000     8.268000000
H    -0.068000000    -0.191000000     9.137000000
C    -1.791000000     0.080000000     7.764000000
H    -2.290000000     0.923000000     8.236000000
C    -2.489000000    -0.655000000     6.719000000
O    -3.635000000    -0.068000000     6.235000000
C    -3.688000000     0.599000000     4.979000000
C    -4.864000000     0.650000000     4.292000000
H    -5.776000000     0.209000000     4.687000000
C    -5.002000000     1.332000000     3.057000000
O    -6.292000000     1.205000000     2.447000000
C    -6.636000000     1.840000000     1.255000000
C    -6.635000000     1.026000000     0.088000000
H    -6.388000000    -0.032000000     0.096000000
C    -6.787000000     3.190000000     1.169000000
H    -6.670000000     3.817000000     2.049000000
C    -6.957000000     3.780000000    -0.091000000
H    -6.998000000     4.865000000    -0.135000000
C    -7.082000000     2.964000000    -1.228000000
H    -7.063000000     3.454000000    -2.198000000
C    -6.760000000     1.598000000    -1.122000000
O    -6.596000000     0.865000000    -2.281000000
C    -5.375000000     0.859000000    -3.020000000
C    -5.228000000    -0.189000000    -3.910000000
H    -6.067000000    -0.830000000    -4.167000000
C    -4.048000000    -0.454000000    -4.567000000
O    -3.980000000    -1.485000000    -5.463000000
C    -2.831000000    -2.127000000    -5.816000000
C    -2.252000000    -3.124000000    -5.062000000
H    -2.599000000    -3.345000000    -4.056000000
C    -2.442000000    -1.857000000    -7.143000000
H    -3.031000000    -1.240000000    -7.817000000
C    -1.285000000    -2.472000000    -7.650000000
H    -0.927000000    -2.259000000    -8.654000000
C    -0.598000000    -3.330000000    -6.815000000
H     0.293000000    -3.808000000    -7.213000000
C    -1.082000000    -3.694000000    -5.548000000
O    -0.309000000    -4.592000000    -4.772000000
C     0.798000000    -4.288000000    -4.131000000
C     1.540000000    -5.332000000    -3.552000000
H     1.198000000    -6.354000000    -3.695000000
C     2.798000000    -5.110000000    -2.980000000
O     3.424000000    -6.132000000    -2.414000000
C     3.624000000    -6.052000000    -1.029000000
C     4.997000000    -6.079000000    -0.652000000
H     5.750000000    -6.019000000    -1.433000000
C     5.325000000    -5.874000000     0.676000000
H     6.368000000    -5.854000000     0.979000000
C     4.286000000    -5.801000000     1.659000000
H     4.626000000    -5.657000000     2.682000000
C     2.950000000    -5.792000000     1.274000000
C     2.557000000    -5.960000000    -0.109000000
H     1.525000000    -6.067000000    -0.433000000
C    -0.470000000    -2.286000000    -0.145000000
H    -0.234000000    -2.951000000    -0.971000000
C    -0.310000000    -0.936000000    -0.250000000
H    -0.012000000    -0.398000000    -1.146000000
C    -0.465000000    -0.154000000     0.890000000
H    -0.330000000     0.919000000     0.878000000
C    -0.696000000    -0.643000000     2.173000000
H    -0.783000000     0.125000000     2.937000000
C    -1.050000000    -2.012000000     2.255000000
H    -1.352000000    -2.473000000     3.192000000
C    -0.894000000    -2.812000000     1.128000000
C    -1.182000000    -4.209000000     1.265000000
O    -1.569000000    -4.712000000     2.286000000
O    -1.691000000    -4.760000000     0.285000000
O    -3.889000000    -8.582000000    -2.996000000
H    -3.878000000    -7.806000000    -2.437000000
H    -2.966000000    -8.785000000    -3.143000000
O    -1.713000000    -5.483000000     4.975000000
H    -1.710000000    -5.625000000     4.028000000
H    -1.221000000    -4.671000000     5.096000000
O    -1.486000000    -5.924000000     7.823000000
H    -0.868000000    -6.481000000     8.297000000
H    -1.168000000    -5.927000000     6.920000000
O    -3.430000000    -3.691000000    -1.367000000
H    -2.729000000    -3.832000000    -0.730000000
H    -3.822000000    -4.556000000    -1.486000000
O    -5.206000000    -2.767000000     5.012000000
H    -5.400000000    -3.699000000     4.917000000
H    -4.752000000    -2.533000000     4.203000000
O    -6.756000000    -4.905000000    -0.159000000
H    -7.194000000    -4.055000000    -0.101000000
H    -6.395000000    -5.049000000     0.715000000
O    -4.357000000    -1.329000000    -0.027000000
H    -4.624000000    -2.176000000    -0.384000000
H    -3.406000000    -1.314000000    -0.131000000
O    -4.497000000    -6.451000000    -1.185000000
H    -5.169000000    -5.879000000    -0.814000000
H    -3.991000000    -6.748000000    -0.429000000
O    -3.853000000    -7.181000000     5.693000000
H    -3.126000000    -6.632000000     5.398000000
H    -3.497000000    -8.069000000     5.696000000
O    -0.678000000    -6.624000000    -1.479000000
H    -1.033000000    -5.920000000    -0.937000000
H    -1.237000000    -6.633000000    -2.256000000
O    -5.866000000    -5.505000000     4.866000000
H    -6.774000000    -5.642000000     5.138000000
H    -5.383000000    -6.222000000     5.277000000
O    -1.826000000    -6.863000000    -4.252000000
H    -1.096000000    -6.319000000    -4.545000000
H    -2.581000000    -6.537000000    -4.742000000
O     0.314000000    -8.646000000     0.029000000
H     0.229000000    -7.952000000    -0.626000000
H    -0.164000000    -8.317000000     0.790000000
O    -5.239000000    -5.777000000     1.955000000
H    -4.532000000    -6.422000000     1.936000000
H    -5.116000000    -5.311000000     2.782000000
O    -2.932000000    -7.133000000     1.190000000
H    -2.219000000    -7.679000000     1.523000000
H    -2.506000000    -6.317000000     0.928000000
O     0.267000000    -8.020000000     5.023000000
H     0.598000000    -7.621000000     5.828000000
H     0.934000000    -8.662000000     4.781000000
O    -4.029000000    -2.445000000     2.499000000
H    -4.056000000    -1.796000000     1.796000000
H    -3.373000000    -3.080000000     2.213000000
O    -5.094000000    -9.955000000     1.254000000
H    -4.713000000    -9.086000000     1.135000000
H    -5.728000000   -10.038000000     0.541000000
O    -0.532000000    -7.428000000     2.342000000
H    -0.692000000    -6.493000000     2.212000000
H    -0.332000000    -7.508000000     3.275000000
