215
-1464.73286
C     3.576000000     2.178000000    -1.510000000
H     3.228000000     1.526000000    -2.308000000
C     3.855000000     1.731000000    -0.177000000
C     4.226000000     2.740000000     0.762000000
H     4.415000000     2.510000000     1.807000000
C     3.816000000     0.311000000     0.175000000
O     4.485000000    -0.526000000    -0.864000000
H     2.788000000    -0.078000000     0.138000000
O     4.497000000    -0.039000000     1.402000000
C     3.884000000    -0.813000000     2.328000000
C     3.135000000    -0.124000000     3.269000000
H     3.136000000     0.959000000     3.367000000
C     2.390000000    -0.814000000     4.230000000
O     1.533000000    -0.008000000     4.914000000
C     2.141000000    -2.202000000     4.087000000
C     1.066000000    -2.932000000     4.896000000
H     1.402000000    -3.943000000     5.135000000
C    -0.300000000    -2.873000000     4.153000000
C    -0.597000000    -3.859000000     3.226000000
H     0.074000000    -4.700000000     3.070000000
H     0.906000000    -2.442000000     5.859000000
C     2.809000000    -2.797000000     3.034000000
H     2.637000000    -3.863000000     2.909000000
C     3.739000000    -2.163000000     2.159000000
C     4.526000000    -2.882000000     1.084000000
H     4.795000000    -3.905000000     1.356000000
H     5.508000000    -2.406000000     1.076000000
C     3.877000000    -2.898000000    -0.313000000
C     3.047000000    -3.957000000    -0.635000000
H     2.938000000    -4.802000000     0.039000000
C     3.907000000    -1.754000000    -1.199000000
C     3.224000000    -1.763000000    -2.341000000
H     3.117000000    -0.901000000    -2.994000000
C     2.529000000    -2.877000000    -2.699000000
O     1.776000000    -2.825000000    -3.905000000
C     0.419000000    -2.377000000    -3.845000000
C     0.062000000    -1.308000000    -4.887000000
C    -1.235000000    -1.190000000    -5.293000000
H    -2.026000000    -1.852000000    -4.950000000
C     0.985000000    -0.419000000    -5.400000000
H     2.034000000    -0.571000000    -5.160000000
O    -0.479000000    -3.555000000    -3.905000000
H     0.374000000    -1.843000000    -2.884000000
C     2.284000000    -3.908000000    -1.801000000
C     1.385000000    -5.101000000    -2.104000000
H     1.753000000    -6.014000000    -1.633000000
H     1.392000000    -5.376000000    -3.161000000
C    -0.004000000    -4.686000000    -1.735000000
C    -0.416000000    -4.970000000    -0.481000000
H     0.217000000    -5.578000000     0.160000000
C    -0.858000000    -4.007000000    -2.628000000
C    -2.067000000    -3.516000000    -2.172000000
H    -2.741000000    -3.047000000    -2.884000000
C    -2.474000000    -3.795000000    -0.891000000
O    -3.634000000    -3.180000000    -0.482000000
C    -3.525000000    -2.081000000     0.418000000
C    -4.470000000    -0.926000000    -0.074000000
C    -4.888000000    -0.742000000    -1.416000000
H    -4.802000000    -1.516000000    -2.175000000
C    -4.819000000     0.126000000     0.791000000
H    -4.549000000    -0.020000000     1.833000000
O    -3.719000000    -2.424000000     1.814000000
H    -2.507000000    -1.699000000     0.252000000
C    -1.665000000    -4.481000000     0.008000000
C    -2.075000000    -4.852000000     1.435000000
H    -1.598000000    -5.807000000     1.667000000
H    -3.141000000    -5.083000000     1.486000000
C    -1.749000000    -3.759000000     2.387000000
C    -2.617000000    -2.643000000     2.564000000
C    -2.273000000    -1.675000000     3.482000000
H    -2.764000000    -0.705000000     3.479000000
C    -1.129000000    -1.780000000     4.293000000
O    -0.789000000    -0.605000000     4.955000000
C     0.233000000     0.248000000     4.403000000
H     0.115000000    -0.001000000     3.338000000
C    -0.068000000     1.762000000     4.601000000
C     0.994000000     2.625000000     4.936000000
H     2.039000000     2.326000000     4.926000000
C    -1.356000000     2.234000000     4.355000000
H    -2.197000000     1.552000000     4.257000000
C    -1.663000000     3.613000000     4.644000000
O    -2.952000000     4.006000000     4.684000000
C    -0.620000000     4.484000000     4.958000000
H    -1.005000000     5.482000000     5.153000000
C     0.677000000     3.997000000     5.081000000
O     1.588000000     4.990000000     5.361000000
C     2.834000000     4.950000000     4.714000000
C     2.916000000     5.077000000     3.324000000
H     1.986000000     5.273000000     2.797000000
C     3.934000000     4.587000000     5.477000000
H     3.909000000     4.300000000     6.525000000
C     5.166000000     4.421000000     4.822000000
H     6.047000000     4.271000000     5.441000000
C     5.281000000     4.673000000     3.457000000
H     6.282000000     4.664000000     3.033000000
C     4.144000000     4.947000000     2.665000000
O     4.326000000     5.121000000     1.280000000
C     4.137000000     4.105000000     0.435000000
C     3.842000000     4.503000000    -0.902000000
H     3.905000000     5.558000000    -1.153000000
C     3.702000000     3.531000000    -1.881000000
O     3.336000000     3.947000000    -3.174000000
C     3.567000000     3.279000000    -4.353000000
C     2.486000000     2.674000000    -4.997000000
H     1.546000000     2.719000000    -4.454000000
C     4.750000000     3.364000000    -5.025000000
H     5.513000000     4.076000000    -4.723000000
C     4.875000000     2.789000000    -6.293000000
H     5.765000000     2.892000000    -6.909000000
C     3.847000000     2.005000000    -6.833000000
H     3.952000000     1.497000000    -7.788000000
C     2.590000000     2.000000000    -6.242000000
O     1.508000000     1.394000000    -6.856000000
C     0.589000000     0.616000000    -6.307000000
C    -0.771000000     0.744000000    -6.623000000
H    -1.053000000     1.461000000    -7.390000000
C    -1.680000000    -0.167000000    -6.079000000
O    -2.905000000    -0.170000000    -6.586000000
C    -4.058000000    -0.556000000    -5.942000000
C    -4.610000000     0.295000000    -4.921000000
H    -4.109000000     1.212000000    -4.620000000
C    -4.746000000    -1.748000000    -6.241000000
H    -4.395000000    -2.438000000    -7.004000000
C    -5.887000000    -2.117000000    -5.535000000
H    -6.453000000    -2.957000000    -5.929000000
C    -6.325000000    -1.375000000    -4.476000000
H    -7.160000000    -1.714000000    -3.869000000
C    -5.693000000    -0.168000000    -4.181000000
O    -6.150000000     0.560000000    -3.091000000
C    -5.664000000     0.401000000    -1.767000000
C    -5.916000000     1.438000000    -0.865000000
H    -6.475000000     2.306000000    -1.205000000
C    -5.549000000     1.273000000     0.468000000
O    -5.821000000     2.233000000     1.388000000
C    -5.533000000     2.344000000     2.690000000
C    -5.956000000     1.330000000     3.551000000
H    -6.487000000     0.482000000     3.127000000
C    -5.566000000     1.338000000     4.870000000
H    -5.815000000     0.477000000     5.485000000
C    -4.611000000     2.333000000     5.269000000
H    -4.165000000     2.284000000     6.259000000
C    -4.075000000     3.257000000     4.393000000
C    -4.644000000     3.296000000     3.112000000
H    -4.179000000     3.929000000     2.361000000
C    -1.234000000     1.507000000    -1.704000000
H    -1.788000000     1.756000000    -2.606000000
C    -0.827000000     0.215000000    -1.497000000
H    -1.037000000    -0.539000000    -2.251000000
C    -0.118000000    -0.098000000    -0.278000000
H     0.141000000    -1.162000000    -0.063000000
C     0.127000000     0.910000000     0.646000000
H     0.612000000     0.719000000     1.599000000
C    -0.332000000     2.223000000     0.391000000
H    -0.325000000     3.088000000     1.049000000
C    -0.998000000     2.531000000    -0.788000000
C    -1.357000000     3.978000000    -1.082000000
O    -1.011000000     4.983000000    -0.329000000
O    -2.089000000     4.298000000    -1.991000000
O    -3.607000000     6.319000000    -2.411000000
H    -3.276000000     5.520000000    -2.001000000
H    -2.839000000     6.887000000    -2.481000000
O    -0.299000000     5.745000000     2.086000000
H    -0.599000000     5.506000000     1.208000000
H    -1.079000000     6.092000000     2.518000000
O    -6.795000000     5.445000000     2.313000000
H    -6.301000000     5.015000000     1.616000000
H    -7.694000000     5.474000000     1.987000000
O    -0.850000000     5.632000000    -3.966000000
H    -1.373000000     4.996000000    -3.479000000
H    -0.809000000     6.397000000    -3.393000000
O    -7.381000000     3.073000000    -3.622000000
H    -6.694000000     2.435000000    -3.431000000
H    -8.194000000     2.568000000    -3.584000000
O    -4.244000000     3.330000000    -3.298000000
H    -3.430000000     3.723000000    -2.982000000
H    -4.704000000     3.061000000    -2.503000000
O     1.569000000     5.974000000    -4.806000000
H     1.990000000     6.405000000    -4.062000000
H     0.739000000     5.650000000    -4.457000000
O    -6.184000000     7.385000000    -3.338000000
H    -5.317000000     7.178000000    -2.990000000
H    -6.299000000     8.318000000    -3.157000000
O    -5.575000000     4.162000000    -5.592000000
H    -6.312000000     3.758000000    -5.132000000
H    -4.805000000     3.895000000    -5.090000000
O     1.648000000     7.995000000    -2.258000000
H     1.649000000     8.562000000    -1.487000000
H     2.064000000     8.520000000    -2.942000000
O    -8.108000000     4.265000000    -0.019000000
H    -8.438000000     3.494000000    -0.480000000
H    -7.300000000     4.492000000    -0.479000000
O    -1.307000000     9.781000000    -2.171000000
H    -1.025000000     8.899000000    -1.927000000
H    -2.196000000     9.665000000    -2.506000000
O    -2.640000000     6.992000000     2.906000000
H    -2.134000000     7.693000000     3.317000000
H    -3.407000000     6.889000000     3.468000000
O    -3.413000000     5.835000000     0.643000000
H    -2.596000000     5.636000000     0.185000000
H    -3.157000000     6.442000000     1.337000000
O     1.734000000     9.595000000    -0.039000000
H     1.096000000     9.229000000     0.573000000
H     2.420000000     9.960000000     0.519000000
O    -2.261000000     6.808000000    -6.391000000
H    -2.364000000     7.700000000    -6.062000000
H    -2.011000000     6.296000000    -5.622000000
O     1.244000000     8.193000000     2.339000000
H     2.165000000     8.095000000     2.580000000
H     0.929000000     7.297000000     2.224000000
O    -5.590000000     4.721000000    -0.793000000
H    -5.504000000     5.278000000    -1.567000000
H    -4.915000000     5.038000000    -0.193000000
O    -0.939000000     7.137000000    -1.827000000
H    -1.104000000     6.444000000    -1.188000000
H     0.010000000     7.130000000    -1.949000000
