215
-1442.85250
C    -3.027000000     2.167000000     2.506000000
H    -3.243000000     2.568000000     1.519000000
C    -1.774000000     2.463000000     3.087000000
C    -1.561000000     2.027000000     4.417000000
H    -0.742000000     2.368000000     5.045000000
C    -0.795000000     3.300000000     2.229000000
O    -1.303000000     4.388000000     1.491000000
H    -0.322000000     2.570000000     1.556000000
O     0.253000000     3.779000000     3.145000000
C     1.575000000     3.443000000     2.803000000
C     2.099000000     2.319000000     3.404000000
H     1.512000000     1.715000000     4.091000000
C     3.220000000     1.707000000     2.872000000
O     3.525000000     0.424000000     3.364000000
C     3.912000000     2.294000000     1.889000000
C     5.153000000     1.585000000     1.269000000
H     5.844000000     2.344000000     0.895000000
C     4.800000000     0.504000000     0.212000000
C     4.769000000     0.823000000    -1.141000000
H     5.101000000     1.811000000    -1.450000000
H     5.824000000     1.103000000     1.984000000
C     3.453000000     3.550000000     1.298000000
H     3.977000000     4.141000000     0.551000000
C     2.258000000     4.060000000     1.754000000
C     1.573000000     5.253000000     1.111000000
H     2.296000000     5.956000000     0.692000000
H     0.988000000     5.809000000     1.847000000
C     0.643000000     4.837000000    -0.003000000
C     1.135000000     4.680000000    -1.287000000
H     2.184000000     4.780000000    -1.555000000
C    -0.733000000     4.558000000     0.224000000
C    -1.591000000     4.305000000    -0.851000000
H    -2.617000000     3.978000000    -0.701000000
C    -1.093000000     4.265000000    -2.155000000
O    -1.870000000     3.778000000    -3.139000000
C    -1.849000000     2.333000000    -3.221000000
C    -3.213000000     1.737000000    -3.392000000
C    -3.338000000     0.412000000    -3.820000000
H    -2.461000000    -0.013000000    -4.302000000
C    -4.330000000     2.484000000    -2.904000000
H    -4.240000000     3.517000000    -2.578000000
O    -1.061000000     2.042000000    -4.375000000
H    -1.357000000     1.968000000    -2.307000000
C     0.322000000     4.301000000    -2.351000000
C     0.939000000     4.059000000    -3.680000000
H     1.833000000     4.677000000    -3.788000000
H     0.243000000     4.289000000    -4.489000000
C     1.301000000     2.578000000    -3.880000000
C     2.582000000     2.145000000    -3.735000000
H     3.339000000     2.836000000    -3.372000000
C     0.303000000     1.667000000    -4.271000000
C     0.621000000     0.386000000    -4.429000000
H    -0.238000000    -0.225000000    -4.696000000
C     1.913000000    -0.075000000    -4.249000000
O     2.182000000    -1.378000000    -4.403000000
C     2.177000000    -2.132000000    -3.117000000
C     1.411000000    -3.459000000    -3.256000000
C     0.279000000    -3.575000000    -4.020000000
H    -0.089000000    -2.744000000    -4.617000000
C     1.756000000    -4.573000000    -2.459000000
H     2.641000000    -4.582000000    -1.828000000
O     3.534000000    -2.272000000    -2.632000000
H     1.683000000    -1.640000000    -2.266000000
C     2.953000000     0.820000000    -3.964000000
C     4.367000000     0.337000000    -3.614000000
H     5.133000000     1.061000000    -3.900000000
H     4.629000000    -0.568000000    -4.166000000
C     4.317000000    -0.062000000    -2.127000000
C     4.061000000    -1.344000000    -1.741000000
C     4.093000000    -1.709000000    -0.449000000
H     3.606000000    -2.656000000    -0.234000000
C     4.445000000    -0.828000000     0.573000000
O     4.267000000    -1.234000000     1.910000000
C     3.104000000    -0.682000000     2.529000000
H     2.449000000    -0.253000000     1.757000000
C     2.616000000    -1.855000000     3.415000000
C     1.989000000    -1.589000000     4.734000000
H     2.072000000    -0.587000000     5.149000000
C     2.385000000    -3.128000000     2.860000000
H     2.676000000    -3.474000000     1.871000000
C     1.726000000    -4.130000000     3.594000000
O     1.456000000    -5.360000000     3.081000000
C     1.350000000    -3.880000000     4.851000000
H     0.910000000    -4.759000000     5.315000000
C     1.356000000    -2.620000000     5.431000000
O     0.788000000    -2.421000000     6.711000000
C     0.328000000    -1.203000000     7.156000000
C    -0.828000000    -0.684000000     6.562000000
H    -1.190000000    -1.190000000     5.671000000
C     0.961000000    -0.573000000     8.211000000
H     1.865000000    -1.018000000     8.617000000
C     0.367000000     0.580000000     8.751000000
H     0.867000000     1.123000000     9.549000000
C    -0.763000000     1.096000000     8.110000000
H    -1.084000000     2.060000000     8.497000000
C    -1.378000000     0.488000000     7.012000000
O    -2.458000000     1.068000000     6.433000000
C    -2.585000000     1.316000000     5.066000000
C    -3.784000000     1.111000000     4.458000000
H    -4.535000000     0.567000000     5.025000000
C    -4.006000000     1.579000000     3.211000000
O    -5.198000000     1.461000000     2.650000000
C    -5.689000000     2.268000000     1.619000000
C    -5.863000000     1.765000000     0.328000000
H    -5.702000000     0.722000000     0.069000000
C    -5.653000000     3.604000000     1.941000000
H    -5.335000000     3.853000000     2.950000000
C    -6.129000000     4.498000000     0.962000000
H    -6.125000000     5.543000000     1.262000000
C    -6.311000000     4.012000000    -0.323000000
H    -6.545000000     4.745000000    -1.091000000
C    -6.243000000     2.648000000    -0.651000000
O    -6.483000000     2.296000000    -1.996000000
C    -5.486000000     1.742000000    -2.710000000
C    -5.600000000     0.376000000    -3.032000000
H    -6.487000000    -0.195000000    -2.771000000
C    -4.571000000    -0.311000000    -3.635000000
O    -4.677000000    -1.673000000    -3.876000000
C    -3.931000000    -2.198000000    -4.904000000
C    -3.038000000    -3.193000000    -4.474000000
H    -3.013000000    -3.404000000    -3.408000000
C    -4.061000000    -1.857000000    -6.216000000
H    -4.837000000    -1.136000000    -6.460000000
C    -3.225000000    -2.446000000    -7.174000000
H    -3.285000000    -2.190000000    -8.229000000
C    -2.417000000    -3.500000000    -6.821000000
H    -1.771000000    -3.996000000    -7.542000000
C    -2.305000000    -3.861000000    -5.436000000
O    -1.492000000    -4.933000000    -4.996000000
C    -0.450000000    -4.747000000    -4.154000000
C    -0.062000000    -5.780000000    -3.314000000
H    -0.757000000    -6.614000000    -3.266000000
C     0.988000000    -5.725000000    -2.419000000
O     1.294000000    -6.786000000    -1.601000000
C     2.077000000    -6.516000000    -0.478000000
C     3.395000000    -6.992000000    -0.311000000
H     3.884000000    -7.539000000    -1.113000000
C     4.029000000    -6.917000000     0.962000000
H     5.079000000    -7.184000000     1.040000000
C     3.372000000    -6.374000000     2.029000000
H     3.860000000    -6.144000000     2.972000000
C     2.059000000    -5.814000000     1.886000000
C     1.428000000    -5.898000000     0.652000000
H     0.450000000    -5.427000000     0.597000000
C    -0.514000000    -2.458000000    -0.294000000
H     0.142000000    -3.306000000    -0.114000000
C     0.052000000    -1.197000000    -0.376000000
H     1.130000000    -1.109000000    -0.265000000
C    -0.735000000    -0.024000000    -0.491000000
H    -0.218000000     0.965000000    -0.585000000
C    -2.039000000    -0.132000000    -0.750000000
H    -2.729000000     0.685000000    -0.945000000
C    -2.657000000    -1.395000000    -0.739000000
H    -3.707000000    -1.413000000    -1.020000000
C    -1.882000000    -2.556000000    -0.469000000
C    -2.491000000    -3.896000000    -0.380000000
O    -3.684000000    -4.136000000    -0.647000000
O    -1.804000000    -4.783000000     0.036000000
O    -2.607000000   -10.265000000    -2.793000000
H    -2.255000000    -9.609000000    -2.191000000
H    -3.412000000    -9.872000000    -3.131000000
O    -0.646000000    -8.960000000    -0.970000000
H    -1.295000000    -8.346000000    -0.629000000
H     0.032000000    -8.403000000    -1.353000000
O    -0.995000000    -6.377000000     4.652000000
H    -0.158000000    -6.749000000     4.375000000
H    -0.916000000    -6.291000000     5.602000000
O    -3.836000000    -2.135000000     4.973000000
H    -4.310000000    -2.928000000     4.722000000
H    -3.091000000    -2.101000000     4.373000000
O    -4.383000000    -4.799000000     4.466000000
H    -4.792000000    -5.658000000     4.364000000
H    -3.613000000    -4.832000000     3.898000000
O    -2.441000000    -7.105000000    -0.593000000
H    -2.148000000    -6.246000000    -0.291000000
H    -3.328000000    -6.955000000    -0.921000000
O    -6.490000000    -2.218000000     2.474000000
H    -5.791000000    -1.691000000     2.086000000
H    -6.506000000    -3.019000000     1.950000000
O    -5.771000000    -4.314000000     1.009000000
H    -5.671000000    -5.236000000     1.244000000
H    -5.087000000    -4.158000000     0.358000000
O    -3.058000000    -8.288000000     3.894000000
H    -3.429000000    -8.546000000     4.737000000
H    -2.412000000    -7.617000000     4.111000000
O    -1.785000000    -7.578000000    -6.041000000
H    -0.921000000    -7.851000000    -5.732000000
H    -1.866000000    -6.669000000    -5.753000000
O    -4.751000000    -6.655000000     1.446000000
H    -4.970000000    -7.321000000     0.795000000
H    -3.819000000    -6.483000000     1.308000000
O    -1.877000000    -2.035000000     3.151000000
H    -1.775000000    -2.980000000     3.036000000
H    -1.640000000    -1.663000000     2.302000000
O    -4.926000000    -6.863000000    -1.423000000
H    -5.182000000    -7.272000000    -2.250000000
H    -5.344000000    -6.002000000    -1.443000000
O    -2.325000000    -4.738000000     2.747000000
H    -2.213000000    -4.840000000     1.802000000
H    -1.675000000    -5.327000000     3.130000000
O    -8.240000000    -4.937000000    -1.275000000
H    -7.384000000    -4.708000000    -1.635000000
H    -8.680000000    -4.096000000    -1.151000000
O    -5.751000000    -7.055000000    -4.097000000
H    -6.707000000    -7.028000000    -4.050000000
H    -5.557000000    -7.059000000    -5.034000000
O    -8.474000000    -4.904000000     2.372000000
H    -8.169000000    -5.732000000     2.743000000
H    -7.930000000    -4.775000000     1.595000000
O    -8.117000000    -2.228000000    -2.191000000
H    -8.197000000    -2.242000000    -3.144000000
H    -7.352000000    -2.774000000    -2.007000000
O    -5.797000000    -4.080000000    -2.141000000
H    -5.522000000    -3.596000000    -2.920000000
H    -4.978000000    -4.346000000    -1.723000000
