215
-1447.26983
C    -3.277000000     2.915000000     3.060000000
H    -3.616000000     3.704000000     2.393000000
C    -1.916000000     2.649000000     3.419000000
C    -1.613000000     1.718000000     4.387000000
H    -0.566000000     1.616000000     4.663000000
C    -0.808000000     3.245000000     2.550000000
O    -1.354000000     4.276000000     1.733000000
H    -0.564000000     2.393000000     1.898000000
O     0.355000000     3.628000000     3.342000000
C     1.623000000     3.356000000     2.863000000
C     2.282000000     2.205000000     3.328000000
H     1.775000000     1.596000000     4.072000000
C     3.400000000     1.735000000     2.743000000
O     3.661000000     0.435000000     3.113000000
C     3.940000000     2.440000000     1.673000000
C     5.154000000     1.912000000     0.996000000
H     5.634000000     2.787000000     0.554000000
C     4.826000000     0.920000000    -0.090000000
C     4.644000000     1.328000000    -1.348000000
H     4.780000000     2.387000000    -1.550000000
H     5.886000000     1.458000000     1.668000000
C     3.333000000     3.590000000     1.145000000
H     3.627000000     4.005000000     0.185000000
C     2.133000000     4.027000000     1.737000000
C     1.366000000     5.164000000     1.022000000
H     2.048000000     5.900000000     0.590000000
H     0.933000000     5.739000000     1.843000000
C     0.365000000     4.662000000     0.043000000
C     0.609000000     4.906000000    -1.284000000
H     1.598000000     5.085000000    -1.697000000
C    -0.944000000     4.397000000     0.411000000
C    -1.905000000     4.197000000    -0.553000000
H    -2.903000000     3.898000000    -0.243000000
C    -1.604000000     4.105000000    -1.927000000
O    -2.498000000     3.580000000    -2.799000000
C    -2.326000000     2.154000000    -3.065000000
C    -3.725000000     1.427000000    -2.925000000
C    -3.821000000     0.118000000    -3.468000000
H    -3.019000000    -0.250000000    -4.102000000
C    -4.787000000     1.932000000    -2.193000000
H    -4.695000000     2.931000000    -1.773000000
O    -1.702000000     2.012000000    -4.378000000
H    -1.734000000     1.580000000    -2.337000000
C    -0.304000000     4.421000000    -2.228000000
C     0.222000000     4.224000000    -3.649000000
H     1.075000000     4.892000000    -3.788000000
H    -0.564000000     4.541000000    -4.339000000
C     0.689000000     2.815000000    -4.006000000
C     2.030000000     2.505000000    -3.953000000
H     2.771000000     3.216000000    -3.597000000
C    -0.287000000     1.838000000    -4.423000000
C     0.203000000     0.592000000    -4.753000000
H    -0.519000000    -0.131000000    -5.123000000
C     1.511000000     0.262000000    -4.455000000
O     1.818000000    -1.098000000    -4.409000000
C     2.090000000    -1.711000000    -3.120000000
C     1.477000000    -3.106000000    -2.904000000
C     0.328000000    -3.415000000    -3.664000000
H    -0.139000000    -2.627000000    -4.249000000
C     1.959000000    -4.089000000    -2.072000000
H     2.839000000    -3.951000000    -1.448000000
O     3.583000000    -1.748000000    -2.993000000
H     1.717000000    -1.054000000    -2.321000000
C     2.497000000     1.209000000    -4.083000000
C     4.022000000     0.981000000    -3.810000000
H     4.460000000     1.957000000    -4.029000000
H     4.433000000     0.259000000    -4.519000000
C     4.219000000     0.480000000    -2.358000000
C     4.054000000    -0.854000000    -2.049000000
C     4.214000000    -1.332000000    -0.689000000
H     4.108000000    -2.398000000    -0.505000000
C     4.674000000    -0.449000000     0.238000000
O     4.615000000    -0.891000000     1.511000000
C     3.380000000    -0.654000000     2.249000000
H     2.575000000    -0.342000000     1.567000000
C     3.062000000    -1.863000000     3.092000000
C     2.305000000    -1.732000000     4.207000000
H     1.948000000    -0.759000000     4.536000000
C     3.434000000    -3.160000000     2.705000000
H     3.995000000    -3.268000000     1.780000000
C     3.201000000    -4.262000000     3.476000000
O     3.591000000    -5.588000000     3.142000000
C     2.718000000    -4.036000000     4.744000000
H     2.607000000    -4.858000000     5.447000000
C     2.119000000    -2.854000000     5.013000000
O     1.486000000    -2.790000000     6.224000000
C     0.664000000    -1.788000000     6.666000000
C    -0.548000000    -1.471000000     6.026000000
H    -0.870000000    -2.111000000     5.209000000
C     1.100000000    -1.021000000     7.728000000
H     1.938000000    -1.389000000     8.314000000
C     0.460000000     0.186000000     7.984000000
H     0.911000000     0.887000000     8.682000000
C    -0.719000000     0.511000000     7.339000000
H    -1.159000000     1.484000000     7.541000000
C    -1.209000000    -0.324000000     6.305000000
O    -2.444000000    -0.062000000     5.813000000
C    -2.622000000     0.977000000     4.933000000
C    -3.973000000     1.198000000     4.594000000
H    -4.708000000     0.468000000     4.924000000
C    -4.344000000     2.147000000     3.645000000
O    -5.631000000     2.218000000     3.295000000
C    -6.099000000     2.741000000     2.060000000
C    -6.404000000     1.925000000     1.063000000
H    -6.414000000     0.846000000     1.193000000
C    -6.176000000     4.129000000     1.958000000
H    -5.915000000     4.785000000     2.785000000
C    -6.661000000     4.662000000     0.736000000
H    -6.616000000     5.740000000     0.609000000
C    -6.884000000     3.840000000    -0.348000000
H    -7.192000000     4.261000000    -1.301000000
C    -6.756000000     2.462000000    -0.180000000
O    -6.985000000     1.616000000    -1.256000000
C    -5.906000000     1.128000000    -1.966000000
C    -5.969000000    -0.090000000    -2.548000000
H    -6.897000000    -0.645000000    -2.434000000
C    -4.959000000    -0.675000000    -3.293000000
O    -5.142000000    -1.870000000    -3.801000000
C    -4.201000000    -2.528000000    -4.584000000
C    -3.289000000    -3.442000000    -4.044000000
H    -3.308000000    -3.734000000    -2.997000000
C    -4.171000000    -2.180000000    -5.961000000
H    -4.828000000    -1.460000000    -6.442000000
C    -3.227000000    -2.826000000    -6.773000000
H    -3.185000000    -2.644000000    -7.844000000
C    -2.328000000    -3.694000000    -6.137000000
H    -1.562000000    -4.171000000    -6.743000000
C    -2.303000000    -3.931000000    -4.827000000
O    -1.444000000    -4.916000000    -4.330000000
C    -0.290000000    -4.704000000    -3.584000000
C     0.209000000    -5.608000000    -2.695000000
H    -0.275000000    -6.581000000    -2.678000000
C     1.314000000    -5.331000000    -1.971000000
O     1.656000000    -6.323000000    -1.063000000
C     2.751000000    -6.377000000    -0.309000000
C     3.929000000    -6.969000000    -0.788000000
H     3.954000000    -7.170000000    -1.856000000
C     5.002000000    -7.134000000     0.087000000
H     5.948000000    -7.537000000    -0.265000000
C     4.939000000    -6.603000000     1.354000000
H     5.796000000    -6.758000000     2.004000000
C     3.769000000    -6.001000000     1.834000000
C     2.653000000    -5.849000000     0.965000000
H     1.785000000    -5.298000000     1.318000000
C    -0.062000000    -2.423000000     0.343000000
H     0.695000000    -3.193000000     0.471000000
C     0.449000000    -1.220000000    -0.170000000
H     1.518000000    -1.097000000    -0.318000000
C    -0.389000000    -0.121000000    -0.288000000
H     0.004000000     0.837000000    -0.641000000
C    -1.737000000    -0.158000000     0.004000000
H    -2.329000000     0.703000000    -0.294000000
C    -2.274000000    -1.419000000     0.208000000
H    -3.354000000    -1.529000000     0.268000000
C    -1.439000000    -2.533000000     0.472000000
C    -1.997000000    -3.886000000     0.889000000
O    -3.203000000    -4.017000000     0.872000000
O    -1.318000000    -4.875000000     1.040000000
O    -2.823000000    -7.442000000    -3.748000000
H    -2.798000000    -7.840000000    -4.618000000
H    -2.127000000    -6.785000000    -3.765000000
O    -4.230000000    -2.685000000     6.953000000
H    -5.092000000    -2.440000000     6.615000000
H    -3.688000000    -2.792000000     6.171000000
O    -2.099000000   -10.291000000     1.512000000
H    -2.457000000    -9.469000000     1.175000000
H    -1.246000000   -10.372000000     1.087000000
O    -1.490000000    -4.767000000     5.860000000
H    -1.295000000    -5.290000000     5.083000000
H    -2.249000000    -4.240000000     5.610000000
O    -3.145000000    -6.009000000    -0.939000000
H    -3.223000000    -5.295000000    -0.306000000
H    -2.210000000    -6.214000000    -0.956000000
O    -6.252000000    -5.714000000     5.312000000
H    -6.363000000    -4.769000000     5.216000000
H    -5.963000000    -6.011000000     4.449000000
O    -0.543000000    -7.217000000     0.203000000
H     0.306000000    -7.068000000    -0.214000000
H    -0.891000000    -6.339000000     0.357000000
O    -3.574000000    -3.565000000     4.265000000
H    -4.147000000    -4.295000000     4.030000000
H    -3.763000000    -2.892000000     3.611000000
O    -4.587000000    -5.786000000     2.884000000
H    -4.217000000    -6.607000000     2.557000000
H    -3.986000000    -5.111000000     2.570000000
O     0.103000000    -8.611000000     2.579000000
H     1.053000000    -8.718000000     2.524000000
H    -0.215000000    -8.832000000     1.704000000
O    -1.231000000    -6.304000000     3.569000000
H    -1.333000000    -5.750000000     2.795000000
H    -0.680000000    -7.029000000     3.274000000
O    -5.706000000    -2.916000000     0.275000000
H    -6.132000000    -3.770000000     0.212000000
H    -4.781000000    -3.119000000     0.414000000
O    -1.147000000    -9.154000000    -1.993000000
H    -0.224000000    -9.338000000    -1.816000000
H    -1.365000000    -8.435000000    -1.399000000
O    -2.898000000    -7.965000000     4.947000000
H    -2.241000000    -7.901000000     4.254000000
H    -2.528000000    -7.465000000     5.675000000
O    -4.099000000    -8.108000000     1.391000000
H    -4.115000000    -7.562000000     0.605000000
H    -4.924000000    -8.592000000     1.363000000
O    -7.200000000    -7.129000000    -1.805000000
H    -6.641000000    -7.810000000    -2.179000000
H    -6.588000000    -6.471000000    -1.475000000
O    -6.022000000    -5.814000000     0.328000000
H    -5.294000000    -5.845000000     0.949000000
H    -6.709000000    -6.339000000     0.737000000
O    -5.102000000    -5.924000000    -2.996000000
H    -5.068000000    -5.694000000    -2.067000000
H    -4.241000000    -6.298000000    -3.182000000
O    -5.282000000    -1.691000000     2.837000000
H    -5.630000000    -2.208000000     2.110000000
H    -5.891000000    -0.957000000     2.922000000
