215
-1466.26756
C     4.035000000     2.033000000    -1.683000000
H     3.761000000     1.335000000    -2.470000000
C     4.384000000     1.498000000    -0.427000000
C     4.601000000     2.321000000     0.666000000
H     4.856000000     1.989000000     1.669000000
C     4.267000000    -0.009000000    -0.238000000
O     4.545000000    -0.782000000    -1.416000000
H     3.222000000    -0.267000000    -0.014000000
O     5.001000000    -0.464000000     0.894000000
C     4.263000000    -1.288000000     1.806000000
C     3.724000000    -0.619000000     2.934000000
H     4.034000000     0.405000000     3.125000000
C     2.817000000    -1.278000000     3.714000000
O     2.246000000    -0.513000000     4.668000000
C     2.459000000    -2.616000000     3.469000000
C     1.470000000    -3.403000000     4.306000000
H     1.648000000    -4.469000000     4.152000000
C     0.062000000    -3.049000000     3.744000000
C    -0.613000000    -4.035000000     3.021000000
H    -0.132000000    -4.971000000     2.749000000
H     1.603000000    -3.158000000     5.362000000
C     2.979000000    -3.230000000     2.350000000
H     2.607000000    -4.217000000     2.088000000
C     3.902000000    -2.616000000     1.519000000
C     4.424000000    -3.222000000     0.245000000
H     4.553000000    -4.291000000     0.427000000
H     5.389000000    -2.813000000    -0.061000000
C     3.555000000    -2.958000000    -0.919000000
C     2.640000000    -3.970000000    -1.237000000
H     2.565000000    -4.836000000    -0.583000000
C     3.658000000    -1.801000000    -1.697000000
C     2.720000000    -1.562000000    -2.669000000
H     2.751000000    -0.661000000    -3.276000000
C     1.773000000    -2.549000000    -3.016000000
O     1.032000000    -2.277000000    -4.193000000
C    -0.332000000    -1.860000000    -3.923000000
C    -0.819000000    -0.778000000    -4.854000000
C    -2.174000000    -0.730000000    -5.276000000
H    -2.845000000    -1.554000000    -5.050000000
C     0.079000000     0.205000000    -5.188000000
H     1.117000000     0.174000000    -4.865000000
O    -1.150000000    -3.070000000    -4.013000000
H    -0.402000000    -1.428000000    -2.914000000
C     1.792000000    -3.836000000    -2.344000000
C     0.818000000    -4.947000000    -2.705000000
H     1.186000000    -5.880000000    -2.274000000
H     0.662000000    -5.070000000    -3.779000000
C    -0.500000000    -4.493000000    -2.120000000
C    -0.801000000    -4.887000000    -0.819000000
H    -0.161000000    -5.582000000    -0.282000000
C    -1.405000000    -3.633000000    -2.789000000
C    -2.561000000    -3.141000000    -2.189000000
H    -3.194000000    -2.447000000    -2.736000000
C    -2.777000000    -3.573000000    -0.864000000
O    -3.843000000    -3.013000000    -0.269000000
C    -3.482000000    -1.933000000     0.549000000
C    -4.447000000    -0.750000000     0.314000000
C    -5.041000000    -0.552000000    -0.920000000
H    -4.883000000    -1.231000000    -1.754000000
C    -4.687000000     0.216000000     1.371000000
H    -4.179000000     0.099000000     2.325000000
O    -3.589000000    -2.274000000     1.956000000
H    -2.443000000    -1.607000000     0.397000000
C    -1.891000000    -4.393000000    -0.126000000
C    -2.287000000    -4.776000000     1.315000000
H    -1.872000000    -5.743000000     1.609000000
H    -3.368000000    -4.925000000     1.278000000
C    -1.843000000    -3.777000000     2.403000000
C    -2.410000000    -2.545000000     2.628000000
C    -1.787000000    -1.580000000     3.428000000
H    -2.227000000    -0.606000000     3.625000000
C    -0.575000000    -1.853000000     4.044000000
O    -0.013000000    -0.849000000     4.843000000
C     0.986000000     0.046000000     4.277000000
H     0.868000000     0.016000000     3.184000000
C     0.773000000     1.474000000     4.710000000
C     1.807000000     2.377000000     5.039000000
H     2.834000000     2.019000000     5.032000000
C    -0.539000000     1.946000000     4.757000000
H    -1.389000000     1.276000000     4.652000000
C    -0.859000000     3.242000000     4.977000000
O    -2.127000000     3.730000000     5.127000000
C     0.156000000     4.113000000     5.320000000
H    -0.039000000     5.149000000     5.583000000
C     1.541000000     3.714000000     5.374000000
O     2.613000000     4.571000000     5.554000000
C     3.753000000     4.472000000     4.777000000
C     3.758000000     4.571000000     3.370000000
H     2.868000000     4.679000000     2.755000000
C     4.941000000     4.397000000     5.481000000
H     4.794000000     4.452000000     6.557000000
C     6.126000000     4.438000000     4.714000000
H     7.081000000     4.517000000     5.228000000
C     6.150000000     4.452000000     3.355000000
H     7.102000000     4.244000000     2.873000000
C     4.948000000     4.664000000     2.687000000
O     4.857000000     4.746000000     1.326000000
C     4.650000000     3.724000000     0.409000000
C     4.358000000     4.193000000    -0.864000000
H     4.414000000     5.273000000    -0.973000000
C     4.004000000     3.389000000    -1.909000000
O     3.762000000     3.876000000    -3.185000000
C     3.396000000     3.124000000    -4.325000000
C     2.081000000     3.127000000    -4.804000000
H     1.271000000     3.661000000    -4.315000000
C     4.345000000     2.378000000    -5.020000000
H     5.358000000     2.500000000    -4.647000000
C     4.035000000     1.670000000    -6.133000000
H     4.797000000     1.102000000    -6.660000000
C     2.712000000     1.639000000    -6.585000000
H     2.487000000     1.180000000    -7.544000000
C     1.756000000     2.360000000    -5.900000000
O     0.456000000     2.238000000    -6.341000000
C    -0.375000000     1.247000000    -6.011000000
C    -1.679000000     1.352000000    -6.424000000
H    -1.873000000     2.117000000    -7.172000000
C    -2.547000000     0.332000000    -6.064000000
O    -3.915000000     0.472000000    -6.423000000
C    -4.963000000    -0.066000000    -5.672000000
C    -5.180000000     0.350000000    -4.362000000
H    -4.297000000     0.840000000    -3.958000000
C    -6.082000000    -0.635000000    -6.314000000
H    -6.040000000    -0.758000000    -7.393000000
C    -7.268000000    -0.843000000    -5.612000000
H    -8.073000000    -1.378000000    -6.111000000
C    -7.474000000    -0.347000000    -4.365000000
H    -8.433000000    -0.418000000    -3.859000000
C    -6.347000000     0.199000000    -3.639000000
O    -6.515000000     0.737000000    -2.416000000
C    -5.848000000     0.546000000    -1.202000000
C    -6.064000000     1.551000000    -0.185000000
H    -6.524000000     2.516000000    -0.382000000
C    -5.503000000     1.377000000     1.094000000
O    -5.572000000     2.354000000     2.067000000
C    -5.041000000     2.338000000     3.329000000
C    -5.504000000     1.454000000     4.296000000
H    -6.301000000     0.723000000     4.185000000
C    -4.935000000     1.416000000     5.590000000
H    -5.383000000     0.796000000     6.362000000
C    -3.808000000     2.169000000     5.842000000
H    -3.294000000     2.219000000     6.798000000
C    -3.227000000     2.909000000     4.790000000
C    -3.857000000     3.061000000     3.545000000
H    -3.362000000     3.632000000     2.764000000
C    -0.930000000     2.334000000    -0.622000000
H    -1.748000000     2.374000000    -1.337000000
C    -0.100000000     1.202000000    -0.705000000
H    -0.273000000     0.446000000    -1.467000000
C     0.788000000     0.913000000     0.281000000
H     1.316000000    -0.100000000     0.247000000
C     0.944000000     1.876000000     1.321000000
H     1.727000000     1.739000000     2.062000000
C     0.177000000     3.059000000     1.355000000
H     0.386000000     3.745000000     2.172000000
C    -0.904000000     3.259000000     0.443000000
C    -1.777000000     4.460000000     0.497000000
O    -1.724000000     5.337000000     1.348000000
O    -2.673000000     4.507000000    -0.385000000
O    -0.523000000     7.457000000    -2.477000000
H    -0.091000000     6.613000000    -2.349000000
H    -0.068000000     8.052000000    -1.881000000
O    -2.970000000     7.232000000    -0.966000000
H    -2.940000000     6.370000000    -0.551000000
H    -2.067000000     7.399000000    -1.235000000
O    -2.489000000     6.722000000     3.428000000
H    -2.180000000     6.098000000     2.772000000
H    -3.208000000     7.185000000     2.998000000
O    -1.922000000     4.697000000    -3.025000000
H    -2.286000000     4.329000000    -2.221000000
H    -1.224000000     5.280000000    -2.727000000
O    -4.593000000     3.529000000    -3.008000000
H    -4.359000000     3.597000000    -2.083000000
H    -3.759000000     3.595000000    -3.472000000
O    -5.407000000     8.174000000    -2.167000000
H    -4.704000000     7.620000000    -1.828000000
H    -6.120000000     8.069000000    -1.538000000
O    -4.524000000     6.115000000     6.133000000
H    -4.298000000     5.914000000     5.225000000
H    -5.044000000     5.365000000     6.422000000
O     0.335000000     9.987000000    -0.915000000
H     1.211000000    10.042000000    -0.533000000
H    -0.250000000     9.914000000    -0.160000000
O    -4.407000000     8.787000000     0.550000000
H    -4.764000000     8.395000000     1.347000000
H    -3.938000000     8.071000000     0.121000000
O    -5.041000000     7.394000000     2.823000000
H    -5.569000000     7.675000000     3.570000000
H    -5.401000000     6.539000000     2.584000000
O    -5.166000000     4.865000000     0.513000000
H    -4.234000000     4.866000000     0.293000000
H    -5.220000000     4.356000000     1.322000000
O    -1.908000000    10.415000000     0.886000000
H    -2.773000000    10.592000000     1.255000000
H    -1.841000000     9.460000000     0.881000000
O     2.008000000     6.701000000     0.291000000
H     1.358000000     6.726000000     0.994000000
H     2.629000000     7.395000000     0.514000000
O    -0.237000000     7.879000000     1.624000000
H    -0.726000000     7.079000000     1.434000000
H     0.183000000     7.709000000     2.466000000
O    -2.949000000     4.747000000    -5.765000000
H    -3.822000000     5.090000000    -5.576000000
H    -2.437000000     4.949000000    -4.982000000
O     1.311000000     7.966000000     3.696000000
H     2.174000000     7.587000000     3.857000000
H     0.982000000     8.191000000     4.567000000
O    -1.628000000     7.050000000     6.095000000
H    -1.674000000     7.171000000     5.147000000
H    -2.177000000     6.284000000     6.266000000
O    -7.558000000     5.549000000    -0.848000000
H    -7.555000000     6.506000000    -0.843000000
H    -6.800000000     5.304000000    -0.317000000
O     0.445000000     5.255000000    -1.570000000
H     0.388000000     4.301000000    -1.637000000
H     1.105000000     5.409000000    -0.894000000
