215
-1466.03633
C    -3.010000000     2.633000000     2.514000000
H    -3.332000000     2.817000000     1.492000000
C    -1.753000000     3.126000000     2.953000000
C    -1.354000000     2.834000000     4.258000000
H    -0.342000000     3.041000000     4.596000000
C    -0.885000000     3.791000000     1.874000000
O    -1.585000000     4.645000000     0.903000000
H    -0.362000000     2.989000000     1.333000000
O     0.187000000     4.552000000     2.478000000
C     1.394000000     4.086000000     2.005000000
C     1.899000000     2.953000000     2.565000000
H     1.433000000     2.587000000     3.477000000
C     3.111000000     2.436000000     2.048000000
O     3.668000000     1.330000000     2.639000000
C     3.691000000     2.948000000     0.869000000
C     4.899000000     2.251000000     0.291000000
H     5.480000000     2.940000000    -0.325000000
C     4.669000000     1.000000000    -0.490000000
C     4.383000000     1.099000000    -1.831000000
H     4.387000000     2.065000000    -2.329000000
H     5.513000000     2.014000000     1.163000000
C     3.023000000     3.967000000     0.209000000
H     3.428000000     4.333000000    -0.731000000
C     1.854000000     4.513000000     0.790000000
C     1.123000000     5.513000000    -0.060000000
H     1.853000000     6.016000000    -0.698000000
H     0.675000000     6.266000000     0.593000000
C     0.070000000     4.860000000    -0.968000000
C     0.343000000     4.496000000    -2.287000000
H     1.301000000     4.770000000    -2.720000000
C    -1.243000000     4.597000000    -0.414000000
C    -2.161000000     4.001000000    -1.264000000
H    -3.138000000     3.683000000    -0.908000000
C    -1.855000000     3.627000000    -2.573000000
O    -2.644000000     2.758000000    -3.277000000
C    -2.350000000     1.292000000    -3.334000000
C    -3.581000000     0.520000000    -3.118000000
C    -3.718000000    -0.889000000    -3.278000000
H    -2.859000000    -1.341000000    -3.767000000
C    -4.712000000     1.007000000    -2.552000000
H    -4.624000000     2.013000000    -2.149000000
O    -1.773000000     0.890000000    -4.562000000
H    -1.621000000     1.087000000    -2.536000000
C    -0.583000000     3.862000000    -3.093000000
C    -0.174000000     3.398000000    -4.469000000
H     0.523000000     4.153000000    -4.839000000
H    -0.931000000     3.437000000    -5.255000000
C     0.436000000     1.976000000    -4.394000000
C     1.815000000     1.759000000    -4.388000000
H     2.395000000     2.658000000    -4.195000000
C    -0.397000000     0.841000000    -4.535000000
C     0.177000000    -0.445000000    -4.581000000
H    -0.480000000    -1.311000000    -4.600000000
C     1.530000000    -0.628000000    -4.485000000
O     1.976000000    -1.944000000    -4.317000000
C     2.164000000    -2.368000000    -3.050000000
C     1.515000000    -3.713000000    -2.764000000
C     0.547000000    -4.319000000    -3.591000000
H     0.317000000    -3.718000000    -4.467000000
C     1.862000000    -4.427000000    -1.598000000
H     2.689000000    -4.085000000    -0.981000000
O     3.582000000    -2.435000000    -2.683000000
H     1.705000000    -1.650000000    -2.356000000
C     2.400000000     0.461000000    -4.357000000
C     3.916000000     0.184000000    -4.119000000
H     4.410000000     1.104000000    -4.439000000
H     4.398000000    -0.626000000    -4.671000000
C     4.121000000    -0.028000000    -2.625000000
C     4.050000000    -1.273000000    -2.029000000
C     4.471000000    -1.436000000    -0.659000000
H     4.387000000    -2.406000000    -0.177000000
C     4.578000000    -0.254000000     0.148000000
O     4.578000000    -0.453000000     1.489000000
C     3.438000000     0.031000000     2.136000000
H     2.573000000    -0.100000000     1.469000000
C     3.107000000    -0.908000000     3.288000000
C     2.617000000    -0.498000000     4.579000000
H     2.568000000     0.545000000     4.882000000
C     3.359000000    -2.263000000     3.154000000
H     3.683000000    -2.603000000     2.174000000
C     3.130000000    -3.110000000     4.274000000
O     3.531000000    -4.449000000     4.130000000
C     2.685000000    -2.727000000     5.459000000
H     2.595000000    -3.339000000     6.352000000
C     2.388000000    -1.402000000     5.613000000
O     1.818000000    -1.005000000     6.854000000
C     1.226000000     0.254000000     7.080000000
C     0.006000000     0.591000000     6.520000000
H    -0.430000000    -0.135000000     5.839000000
C     1.844000000     1.186000000     7.957000000
H     2.756000000     0.857000000     8.448000000
C     1.264000000     2.433000000     8.276000000
H     1.750000000     3.053000000     9.026000000
C     0.025000000     2.684000000     7.714000000
H    -0.578000000     3.522000000     8.054000000
C    -0.570000000     1.811000000     6.809000000
O    -1.837000000     1.964000000     6.447000000
C    -2.210000000     2.200000000     5.114000000
C    -3.447000000     1.757000000     4.700000000
H    -4.201000000     1.331000000     5.357000000
C    -3.841000000     1.974000000     3.359000000
O    -5.027000000     1.425000000     2.959000000
C    -5.686000000     1.965000000     1.792000000
C    -5.861000000     1.220000000     0.642000000
H    -5.475000000     0.212000000     0.516000000
C    -6.273000000     3.246000000     1.886000000
H    -6.155000000     3.853000000     2.781000000
C    -6.986000000     3.760000000     0.874000000
H    -7.362000000     4.780000000     0.888000000
C    -7.230000000     2.998000000    -0.277000000
H    -7.899000000     3.362000000    -1.053000000
C    -6.693000000     1.693000000    -0.399000000
O    -6.859000000     0.935000000    -1.486000000
C    -5.864000000     0.296000000    -2.162000000
C    -6.006000000    -0.987000000    -2.589000000
H    -6.838000000    -1.630000000    -2.313000000
C    -4.888000000    -1.642000000    -3.052000000
O    -4.996000000    -2.978000000    -3.241000000
C    -4.118000000    -3.681000000    -4.059000000
C    -3.045000000    -4.393000000    -3.529000000
H    -2.899000000    -4.524000000    -2.460000000
C    -4.262000000    -3.562000000    -5.467000000
H    -5.136000000    -3.086000000    -5.904000000
C    -3.457000000    -4.313000000    -6.339000000
H    -3.471000000    -4.190000000    -7.419000000
C    -2.434000000    -5.087000000    -5.766000000
H    -1.774000000    -5.653000000    -6.419000000
C    -2.264000000    -5.183000000    -4.386000000
O    -1.186000000    -5.922000000    -3.995000000
C    -0.220000000    -5.433000000    -3.179000000
C     0.033000000    -5.986000000    -1.980000000
H    -0.690000000    -6.725000000    -1.642000000
C     1.052000000    -5.500000000    -1.140000000
O     1.370000000    -6.069000000     0.074000000
C     2.440000000    -5.914000000     0.906000000
C     3.689000000    -6.376000000     0.440000000
H     3.759000000    -6.706000000    -0.594000000
C     4.755000000    -6.441000000     1.266000000
H     5.686000000    -6.873000000     0.908000000
C     4.722000000    -5.787000000     2.463000000
H     5.628000000    -5.756000000     3.063000000
C     3.531000000    -5.196000000     2.921000000
C     2.323000000    -5.337000000     2.184000000
H     1.331000000    -4.938000000     2.382000000
C    -0.447000000    -1.988000000     0.279000000
H    -0.163000000    -3.036000000     0.323000000
C     0.556000000    -1.062000000    -0.097000000
H     1.525000000    -1.550000000    -0.165000000
C     0.308000000     0.239000000    -0.329000000
H     1.005000000     0.896000000    -0.791000000
C    -1.029000000     0.707000000    -0.071000000
H    -1.286000000     1.754000000    -0.206000000
C    -2.080000000    -0.191000000     0.373000000
H    -3.079000000     0.168000000     0.607000000
C    -1.775000000    -1.593000000     0.534000000
C    -2.842000000    -2.445000000     1.054000000
O    -3.961000000    -2.066000000     1.045000000
O    -2.597000000    -3.544000000     1.492000000
O    -8.158000000    -1.209000000     2.658000000
H    -8.132000000    -0.438000000     2.091000000
H    -7.278000000    -1.263000000     3.030000000
O    -0.819000000    -3.097000000     3.503000000
H    -1.646000000    -3.291000000     3.061000000
H    -0.177000000    -3.659000000     3.069000000
O    -2.991000000    -6.885000000     4.308000000
H    -2.751000000    -6.924000000     3.382000000
H    -2.177000000    -7.075000000     4.775000000
O    -1.626000000    -5.963000000     1.797000000
H    -2.026000000    -5.101000000     1.678000000
H    -2.024000000    -6.507000000     1.118000000
O    -5.368000000    -2.693000000     5.774000000
H    -5.773000000    -3.552000000     5.892000000
H    -5.190000000    -2.639000000     4.836000000
O    -5.294000000    -1.386000000     3.248000000
H    -4.905000000    -0.511000000     3.255000000
H    -4.758000000    -1.882000000     2.629000000
O    -4.811000000    -5.132000000     1.820000000
H    -4.507000000    -5.918000000     1.367000000
H    -4.109000000    -4.494000000     1.689000000
O    -5.552000000    -7.861000000     2.526000000
H    -5.833000000    -8.075000000     1.637000000
H    -5.929000000    -6.998000000     2.696000000
O    -0.382000000    -0.264000000     2.935000000
H     0.161000000    -0.762000000     2.324000000
H    -0.978000000    -0.913000000     3.308000000
O    -3.862000000    -7.137000000    -0.097000000
H    -3.559000000    -7.800000000    -0.717000000
H    -4.604000000    -6.721000000    -0.535000000
O    -0.052000000    -6.043000000     4.157000000
H    -0.470000000    -6.196000000     3.310000000
H     0.806000000    -6.461000000     4.080000000
O    -5.704000000    -5.862000000    -1.625000000
H    -5.705000000    -4.980000000    -1.252000000
H    -6.626000000    -6.049000000    -1.801000000
O    -2.748000000    -1.812000000     6.765000000
H    -2.423000000    -2.479000000     6.161000000
H    -3.653000000    -1.662000000     6.494000000
O    -1.185000000    -4.071000000     6.077000000
H    -0.765000000    -4.900000000     5.846000000
H    -0.781000000    -3.428000000     5.495000000
O    -9.108000000    -3.670000000     2.408000000
H    -9.007000000    -3.802000000     1.465000000
H    -8.726000000    -2.808000000     2.571000000
O    -5.561000000    -5.448000000     5.301000000
H    -4.710000000    -5.619000000     4.897000000
H    -6.193000000    -5.578000000     4.594000000
O    -8.557000000    -3.544000000    -0.579000000
H    -8.422000000    -3.270000000    -1.487000000
H    -7.694000000    -3.462000000    -0.174000000
O    -6.194000000    -3.469000000     0.440000000
H    -5.856000000    -4.240000000     0.896000000
H    -5.506000000    -2.811000000     0.539000000
O    -7.552000000    -5.844000000     3.284000000
H    -8.161000000    -5.145000000     3.045000000
H    -8.102000000    -6.508000000     3.701000000
