215
-1457.91206
C    -2.199000000     3.536000000     3.023000000
H    -2.565000000     3.791000000     2.032000000
C    -0.818000000     3.360000000     3.179000000
C    -0.298000000     2.924000000     4.435000000
H     0.767000000     2.720000000     4.505000000
C     0.138000000     3.631000000     1.947000000
O    -0.363000000     4.720000000     1.098000000
H     0.327000000     2.684000000     1.421000000
O     1.463000000     4.049000000     2.378000000
C     2.464000000     3.421000000     1.707000000
C     3.006000000     2.216000000     2.242000000
H     2.595000000     1.845000000     3.178000000
C     3.917000000     1.502000000     1.546000000
O     4.389000000     0.413000000     2.233000000
C     4.441000000     1.836000000     0.320000000
C     5.425000000     0.968000000    -0.441000000
H     6.015000000     1.580000000    -1.126000000
C     4.755000000    -0.212000000    -1.231000000
C     4.346000000    -0.052000000    -2.549000000
H     4.531000000     0.874000000    -3.089000000
H     6.249000000     0.606000000     0.178000000
C     3.967000000     3.020000000    -0.274000000
H     4.338000000     3.214000000    -1.277000000
C     2.892000000     3.781000000     0.387000000
C     2.188000000     4.964000000    -0.221000000
H     3.021000000     5.367000000    -0.801000000
H     2.000000000     5.620000000     0.632000000
C     0.973000000     4.454000000    -0.925000000
C     0.994000000     4.105000000    -2.269000000
H     1.897000000     3.942000000    -2.851000000
C    -0.282000000     4.467000000    -0.261000000
C    -1.478000000     4.279000000    -0.994000000
H    -2.488000000     4.244000000    -0.593000000
C    -1.380000000     4.002000000    -2.370000000
O    -2.539000000     3.441000000    -2.969000000
C    -2.612000000     1.976000000    -3.077000000
C    -3.901000000     1.358000000    -2.507000000
C    -4.272000000     0.105000000    -3.034000000
H    -3.668000000    -0.454000000    -3.744000000
C    -4.685000000     2.043000000    -1.573000000
H    -4.440000000     3.069000000    -1.308000000
O    -2.210000000     1.452000000    -4.319000000
H    -1.871000000     1.545000000    -2.387000000
C    -0.147000000     3.808000000    -3.012000000
C     0.018000000     3.391000000    -4.469000000
H     0.767000000     3.935000000    -5.047000000
H    -0.869000000     3.668000000    -5.043000000
C     0.228000000     1.878000000    -4.559000000
C     1.495000000     1.338000000    -4.676000000
H     2.352000000     1.999000000    -4.766000000
C    -0.932000000     1.042000000    -4.456000000
C    -0.765000000    -0.330000000    -4.471000000
H    -1.616000000    -1.005000000    -4.430000000
C     0.488000000    -0.875000000    -4.503000000
O     0.606000000    -2.289000000    -4.443000000
C     1.063000000    -2.772000000    -3.178000000
C     0.161000000    -3.899000000    -2.719000000
C    -1.081000000    -4.188000000    -3.258000000
H    -1.349000000    -3.725000000    -4.204000000
C     0.501000000    -4.490000000    -1.530000000
H     1.429000000    -4.189000000    -1.050000000
O     2.456000000    -3.134000000    -3.195000000
H     1.001000000    -1.988000000    -2.408000000
C     1.614000000    -0.051000000    -4.556000000
C     2.996000000    -0.686000000    -4.628000000
H     3.654000000    -0.105000000    -5.278000000
H     2.925000000    -1.579000000    -5.253000000
C     3.581000000    -1.020000000    -3.241000000
C     3.293000000    -2.212000000    -2.624000000
C     3.707000000    -2.444000000    -1.312000000
H     3.510000000    -3.408000000    -0.850000000
C     4.313000000    -1.381000000    -0.577000000
O     4.621000000    -1.470000000     0.787000000
C     3.771000000    -0.838000000     1.838000000
H     2.829000000    -0.631000000     1.309000000
C     3.497000000    -1.697000000     3.076000000
C     2.981000000    -1.192000000     4.273000000
H     2.856000000    -0.114000000     4.334000000
C     3.515000000    -3.091000000     2.854000000
H     3.651000000    -3.553000000     1.879000000
C     2.960000000    -3.944000000     3.886000000
O     2.921000000    -5.265000000     3.691000000
C     2.626000000    -3.409000000     5.099000000
H     2.389000000    -4.026000000     5.962000000
C     2.631000000    -2.047000000     5.317000000
O     2.274000000    -1.636000000     6.590000000
C     2.052000000    -0.278000000     6.928000000
C     0.931000000     0.402000000     6.479000000
H     0.172000000    -0.064000000     5.855000000
C     3.003000000     0.474000000     7.626000000
H     3.907000000    -0.066000000     7.894000000
C     2.731000000     1.798000000     8.016000000
H     3.504000000     2.357000000     8.538000000
C     1.466000000     2.374000000     7.771000000
H     1.139000000     3.287000000     8.263000000
C     0.591000000     1.732000000     6.963000000
O    -0.678000000     2.199000000     6.760000000
C    -1.114000000     2.685000000     5.531000000
C    -2.525000000     2.955000000     5.414000000
H    -3.130000000     2.864000000     6.313000000
C    -3.028000000     3.457000000     4.182000000
O    -4.361000000     3.672000000     3.976000000
C    -4.994000000     3.886000000     2.768000000
C    -5.360000000     2.778000000     1.996000000
H    -5.402000000     1.746000000     2.335000000
C    -5.069000000     5.208000000     2.327000000
H    -4.714000000     6.009000000     2.971000000
C    -5.570000000     5.449000000     1.036000000
H    -5.709000000     6.489000000     0.751000000
C    -5.976000000     4.336000000     0.303000000
H    -6.395000000     4.610000000    -0.662000000
C    -5.873000000     2.995000000     0.776000000
O    -6.421000000     2.018000000     0.017000000
C    -5.848000000     1.414000000    -1.023000000
C    -6.204000000     0.150000000    -1.510000000
H    -7.094000000    -0.331000000    -1.111000000
C    -5.446000000    -0.439000000    -2.527000000
O    -5.890000000    -1.635000000    -3.029000000
C    -5.241000000    -2.542000000    -3.890000000
C    -4.489000000    -3.525000000    -3.290000000
H    -4.435000000    -3.579000000    -2.206000000
C    -5.189000000    -2.350000000    -5.288000000
H    -5.761000000    -1.551000000    -5.754000000
C    -4.480000000    -3.291000000    -6.059000000
H    -4.566000000    -3.241000000    -7.141000000
C    -3.777000000    -4.345000000    -5.458000000
H    -3.172000000    -5.018000000    -6.060000000
C    -3.879000000    -4.515000000    -4.046000000
O    -3.039000000    -5.481000000    -3.468000000
C    -1.932000000    -5.119000000    -2.773000000
C    -1.512000000    -5.877000000    -1.667000000
H    -2.045000000    -6.786000000    -1.399000000
C    -0.291000000    -5.543000000    -1.068000000
O    -0.040000000    -6.319000000     0.077000000
C     1.269000000    -6.380000000     0.618000000
C     2.335000000    -6.820000000    -0.099000000
H     2.122000000    -7.118000000    -1.122000000
C     3.567000000    -6.861000000     0.470000000
H     4.427000000    -7.233000000    -0.081000000
C     3.781000000    -6.420000000     1.714000000
H     4.773000000    -6.503000000     2.150000000
C     2.733000000    -5.839000000     2.392000000
C     1.502000000    -5.748000000     1.803000000
H     0.644000000    -5.367000000     2.350000000
C    -1.851000000    -1.864000000     0.575000000
H    -1.885000000    -2.942000000     0.706000000
C    -0.783000000    -1.245000000    -0.099000000
H     0.052000000    -1.806000000    -0.511000000
C    -0.720000000     0.105000000    -0.184000000
H     0.235000000     0.538000000    -0.529000000
C    -1.799000000     0.834000000     0.225000000
H    -1.718000000     1.902000000     0.042000000
C    -2.916000000     0.287000000     0.845000000
H    -3.594000000     1.037000000     1.243000000
C    -2.883000000    -1.034000000     1.062000000
C    -4.154000000    -1.743000000     1.663000000
O    -5.032000000    -0.967000000     2.056000000
O    -4.211000000    -2.971000000     1.779000000
O    -4.750000000     0.191000000     7.134000000
H    -4.468000000     0.182000000     6.220000000
H    -4.080000000     0.703000000     7.587000000
O    -6.301000000    -5.779000000    -0.839000000
H    -6.420000000    -5.175000000    -0.106000000
H    -7.105000000    -5.694000000    -1.352000000
O    -1.783000000    -0.679000000     4.416000000
H    -1.962000000    -1.607000000     4.263000000
H    -2.644000000    -0.293000000     4.581000000
O    -8.743000000    -2.607000000    -0.954000000
H    -9.333000000    -1.930000000    -0.623000000
H    -9.026000000    -3.408000000    -0.512000000
O    -8.450000000    -1.887000000     6.256000000
H    -7.719000000    -2.351000000     5.849000000
H    -8.926000000    -2.565000000     6.736000000
O    -2.444000000    -6.874000000     4.776000000
H    -1.638000000    -6.434000000     5.045000000
H    -2.787000000    -6.332000000     4.066000000
O    -3.796000000    -5.328000000     2.938000000
H    -3.712000000    -4.520000000     2.431000000
H    -4.609000000    -5.724000000     2.625000000
O    -4.356000000     0.121000000     4.352000000
H    -4.532000000    -0.311000000     3.516000000
H    -4.945000000     0.876000000     4.360000000
O    -9.315000000     1.365000000     1.437000000
H    -8.737000000     0.737000000     1.870000000
H    -9.000000000     2.220000000     1.729000000
O    -6.257000000    -2.733000000     4.292000000
H    -6.995000000    -2.297000000     3.865000000
H    -5.586000000    -2.788000000     3.612000000
O     0.349000000     0.024000000     2.564000000
H    -0.317000000     0.108000000     1.882000000
H    -0.141000000     0.075000000     3.385000000
O    -6.011000000    -6.708000000     2.504000000
H    -6.493000000    -7.423000000     2.088000000
H    -6.255000000    -5.931000000     2.001000000
O    -2.352000000    -3.465000000     4.433000000
H    -3.039000000    -4.094000000     4.209000000
H    -1.651000000    -3.999000000     4.805000000
O    -6.700000000    -4.281000000     1.471000000
H    -7.522000000    -3.826000000     1.656000000
H    -6.033000000    -3.596000000     1.512000000
O    -5.453000000    -2.452000000     6.917000000
H    -5.081000000    -1.620000000     7.211000000
H    -5.679000000    -2.302000000     5.998000000
O    -6.130000000    -5.630000000     5.116000000
H    -5.949000000    -6.075000000     4.288000000
H    -5.978000000    -4.704000000     4.929000000
O    -6.914000000     1.055000000     5.165000000
H    -6.582000000     0.764000000     6.014000000
H    -7.124000000     1.980000000     5.294000000
O    -8.571000000    -2.800000000     2.483000000
H    -9.406000000    -2.958000000     2.923000000
H    -8.474000000    -1.848000000     2.486000000
O    -7.658000000    -0.231000000     2.843000000
H    -7.295000000     0.159000000     3.638000000
H    -6.907000000    -0.637000000     2.410000000
