215
-1467.28684
C    -1.738000000     3.000000000     4.012000000
H    -2.304000000     3.536000000     3.254000000
C    -0.340000000     2.891000000     3.957000000
C     0.309000000     2.246000000     5.003000000
H     1.394000000     2.193000000     5.045000000
C     0.452000000     3.454000000     2.791000000
O    -0.087000000     4.644000000     2.246000000
H     0.398000000     2.716000000     1.978000000
O     1.837000000     3.682000000     3.123000000
C     2.836000000     3.144000000     2.289000000
C     3.289000000     1.877000000     2.595000000
H     2.975000000     1.410000000     3.525000000
C     3.926000000     1.207000000     1.579000000
O     4.268000000    -0.087000000     1.823000000
C     4.281000000     1.828000000     0.382000000
C     5.269000000     1.159000000    -0.545000000
H     5.931000000     1.895000000    -1.007000000
C     4.611000000     0.306000000    -1.612000000
C     4.113000000     0.781000000    -2.813000000
H     4.298000000     1.835000000    -3.002000000
H     5.872000000     0.488000000     0.070000000
C     3.808000000     3.096000000     0.136000000
H     4.066000000     3.587000000    -0.799000000
C     3.027000000     3.744000000     1.064000000
C     2.332000000     5.091000000     0.794000000
H     2.922000000     5.540000000    -0.007000000
H     2.340000000     5.763000000     1.655000000
C     0.999000000     4.813000000     0.129000000
C     0.946000000     4.661000000    -1.234000000
H     1.838000000     4.825000000    -1.834000000
C    -0.182000000     4.757000000     0.918000000
C    -1.401000000     4.603000000     0.303000000
H    -2.306000000     4.449000000     0.885000000
C    -1.421000000     4.427000000    -1.071000000
O    -2.670000000     3.890000000    -1.546000000
C    -2.670000000     2.496000000    -2.087000000
C    -3.916000000     1.763000000    -1.682000000
C    -4.592000000     0.944000000    -2.638000000
H    -4.223000000     0.934000000    -3.660000000
C    -4.509000000     1.935000000    -0.430000000
H    -3.944000000     2.447000000     0.344000000
O    -2.507000000     2.507000000    -3.497000000
H    -1.810000000     1.899000000    -1.751000000
C    -0.242000000     4.458000000    -1.946000000
C    -0.308000000     4.372000000    -3.471000000
H     0.383000000     5.038000000    -3.992000000
H    -1.326000000     4.642000000    -3.760000000
C    -0.166000000     2.977000000    -4.007000000
C     1.079000000     2.461000000    -4.356000000
H     1.933000000     3.131000000    -4.394000000
C    -1.300000000     2.139000000    -3.999000000
C    -1.132000000     0.795000000    -4.515000000
H    -1.964000000     0.097000000    -4.456000000
C     0.148000000     0.282000000    -4.698000000
O     0.268000000    -1.077000000    -5.053000000
C     0.773000000    -1.957000000    -4.011000000
C     0.100000000    -3.313000000    -3.960000000
C    -1.294000000    -3.287000000    -3.823000000
H    -1.790000000    -2.320000000    -3.786000000
C     0.801000000    -4.510000000    -3.703000000
H     1.886000000    -4.516000000    -3.640000000
O     2.209000000    -2.054000000    -4.098000000
H     0.541000000    -1.531000000    -3.024000000
C     1.306000000     1.098000000    -4.635000000
C     2.721000000     0.650000000    -4.882000000
H     3.340000000     1.456000000    -5.284000000
H     2.808000000    -0.117000000    -5.655000000
C     3.311000000    -0.017000000    -3.663000000
C     3.021000000    -1.284000000    -3.300000000
C     3.484000000    -1.824000000    -2.113000000
H     3.165000000    -2.817000000    -1.807000000
C     4.225000000    -0.985000000    -1.255000000
O     4.550000000    -1.514000000    -0.024000000
C     3.646000000    -1.078000000     1.006000000
H     2.802000000    -0.668000000     0.430000000
C     3.116000000    -2.215000000     1.878000000
C     3.125000000    -2.124000000     3.319000000
H     3.425000000    -1.181000000     3.769000000
C     2.648000000    -3.409000000     1.332000000
H     2.675000000    -3.535000000     0.253000000
C     2.248000000    -4.439000000     2.133000000
O     1.705000000    -5.628000000     1.685000000
C     2.154000000    -4.266000000     3.529000000
H     1.915000000    -5.088000000     4.200000000
C     2.540000000    -3.092000000     4.137000000
O     2.621000000    -2.966000000     5.521000000
C     2.568000000    -1.733000000     6.177000000
C     1.427000000    -0.895000000     6.105000000
H     0.613000000    -1.268000000     5.490000000
C     3.664000000    -1.378000000     7.013000000
H     4.556000000    -1.995000000     7.085000000
C     3.596000000    -0.205000000     7.793000000
H     4.484000000     0.059000000     8.360000000
C     2.505000000     0.639000000     7.739000000
H     2.511000000     1.513000000     8.385000000
C     1.332000000     0.237000000     6.995000000
O     0.218000000     0.949000000     7.055000000
C    -0.444000000     1.670000000     6.067000000
C    -1.789000000     1.806000000     6.075000000
H    -2.359000000     1.387000000     6.901000000
C    -2.450000000     2.413000000     5.021000000
O    -3.827000000     2.540000000     5.160000000
C    -4.608000000     2.833000000     4.156000000
C    -4.962000000     1.835000000     3.283000000
H    -4.642000000     0.801000000     3.387000000
C    -5.103000000     4.154000000     4.051000000
H    -4.790000000     4.843000000     4.830000000
C    -5.907000000     4.535000000     2.945000000
H    -6.302000000     5.547000000     2.958000000
C    -6.256000000     3.523000000     2.019000000
H    -6.816000000     3.933000000     1.182000000
C    -5.793000000     2.200000000     2.207000000
O    -6.102000000     1.220000000     1.220000000
C    -5.636000000     1.201000000    -0.067000000
C    -6.178000000     0.242000000    -0.946000000
H    -6.911000000    -0.432000000    -0.510000000
C    -5.647000000     0.210000000    -2.225000000
O    -6.331000000    -0.604000000    -3.142000000
C    -5.648000000    -1.593000000    -3.764000000
C    -4.921000000    -2.556000000    -3.032000000
H    -4.907000000    -2.451000000    -1.950000000
C    -5.631000000    -1.661000000    -5.130000000
H    -6.088000000    -0.841000000    -5.678000000
C    -4.981000000    -2.707000000    -5.807000000
H    -5.132000000    -2.710000000    -6.884000000
C    -4.153000000    -3.617000000    -5.082000000
H    -3.509000000    -4.388000000    -5.496000000
C    -4.157000000    -3.509000000    -3.704000000
O    -3.301000000    -4.321000000    -3.021000000
C    -1.993000000    -4.477000000    -3.429000000
C    -1.321000000    -5.630000000    -3.151000000
H    -1.835000000    -6.475000000    -2.700000000
C     0.081000000    -5.651000000    -3.284000000
O     0.680000000    -6.797000000    -2.908000000
C     1.569000000    -6.689000000    -1.840000000
C     2.963000000    -6.884000000    -2.067000000
H     3.348000000    -7.172000000    -3.041000000
C     3.830000000    -6.698000000    -1.017000000
H     4.867000000    -6.968000000    -1.198000000
C     3.414000000    -6.299000000     0.199000000
H     4.134000000    -6.283000000     1.013000000
C     2.061000000    -6.108000000     0.474000000
C     1.075000000    -6.364000000    -0.545000000
H     0.032000000    -6.132000000    -0.346000000
C    -1.370000000    -3.059000000     0.105000000
H    -1.345000000    -4.146000000     0.093000000
C    -0.169000000    -2.422000000    -0.182000000
H     0.795000000    -2.894000000    -0.352000000
C    -0.138000000    -1.000000000    -0.207000000
H     0.799000000    -0.477000000    -0.374000000
C    -1.314000000    -0.311000000     0.031000000
H    -1.217000000     0.771000000     0.054000000
C    -2.523000000    -0.977000000     0.331000000
H    -3.420000000    -0.420000000     0.589000000
C    -2.540000000    -2.376000000     0.320000000
C    -3.849000000    -3.176000000     0.531000000
O    -4.862000000    -2.542000000     0.731000000
O    -3.815000000    -4.366000000     0.273000000
O    -8.710000000    -6.005000000     1.927000000
H    -7.769000000    -5.843000000     1.992000000
H    -8.784000000    -6.762000000     1.346000000
O    -1.480000000    -3.564000000     3.501000000
H    -1.265000000    -2.643000000     3.648000000
H    -1.333000000    -3.698000000     2.565000000
O    -5.423000000    -8.007000000    -0.459000000
H    -5.761000000    -7.200000000    -0.070000000
H    -5.646000000    -7.937000000    -1.387000000
O    -6.042000000    -1.497000000     2.950000000
H    -5.806000000    -2.311000000     2.506000000
H    -5.704000000    -0.806000000     2.380000000
O    -2.632000000    -6.420000000     1.605000000
H    -3.150000000    -6.188000000     2.375000000
H    -2.868000000    -5.763000000     0.950000000
O    -0.333000000    -7.623000000     2.147000000
H    -1.052000000    -7.013000000     1.982000000
H     0.435000000    -7.063000000     2.263000000
O   -10.093000000    -3.696000000     2.530000000
H    -9.704000000    -4.548000000     2.335000000
H    -9.849000000    -3.524000000     3.439000000
O    -9.458000000    -5.427000000    -2.943000000
H    -9.830000000    -4.595000000    -2.652000000
H    -8.511000000    -5.308000000    -2.862000000
O    -5.845000000    -5.669000000     1.428000000
H    -5.350000000    -5.585000000     2.243000000
H    -5.302000000    -5.232000000     0.772000000
O    -3.629000000    -9.079000000     1.588000000
H    -4.336000000    -8.773000000     1.020000000
H    -3.175000000    -8.280000000     1.857000000
O    -5.859000000    -3.957000000     4.928000000
H    -5.970000000    -3.266000000     4.275000000
H    -5.983000000    -3.515000000     5.768000000
O     0.895000000    -0.064000000     2.702000000
H     0.448000000     0.072000000     1.866000000
H     1.715000000    -0.499000000     2.467000000
O    -4.250000000    -5.746000000     3.701000000
H    -4.697000000    -5.158000000     4.309000000
H    -4.486000000    -6.624000000     3.999000000
O    -5.443000000    -7.298000000    -3.549000000
H    -5.466000000    -7.021000000    -4.466000000
H    -4.652000000    -7.832000000    -3.481000000
O    -7.537000000    -2.967000000     0.755000000
H    -6.616000000    -2.711000000     0.713000000
H    -7.527000000    -3.917000000     0.644000000
O    -9.506000000    -2.895000000    -1.296000000
H    -8.828000000    -2.729000000    -0.642000000
H    -9.516000000    -2.106000000    -1.838000000
O    -5.727000000    -4.929000000    -1.353000000
H    -5.500000000    -5.469000000    -2.110000000
H    -4.889000000    -4.752000000    -0.926000000
O    -1.779000000    -4.816000000     5.721000000
H    -1.873000000    -4.450000000     4.841000000
H    -1.110000000    -5.494000000     5.628000000
O    -9.290000000    -1.342000000     2.256000000
H    -9.575000000    -2.252000000     2.183000000
H    -8.391000000    -1.345000000     1.928000000
