215
-1431.75388
C    -2.428000000     2.665000000     3.468000000
H    -2.655000000     3.320000000     2.630000000
C    -1.079000000     2.386000000     3.842000000
C    -0.880000000     1.449000000     4.816000000
H     0.140000000     1.158000000     5.053000000
C     0.080000000     2.996000000     3.103000000
O    -0.235000000     4.238000000     2.508000000
H     0.197000000     2.273000000     2.282000000
O     1.344000000     2.886000000     3.873000000
C     2.400000000     2.308000000     3.154000000
C     2.691000000     0.970000000     3.383000000
H     2.235000000     0.476000000     4.237000000
C     3.753000000     0.361000000     2.723000000
O     3.937000000    -0.958000000     3.001000000
C     4.486000000     1.033000000     1.732000000
C     5.535000000     0.431000000     0.797000000
H     6.225000000     1.257000000     0.613000000
C     4.909000000    -0.291000000    -0.348000000
C     4.779000000     0.457000000    -1.557000000
H     5.220000000     1.448000000    -1.618000000
H     6.170000000    -0.215000000     1.407000000
C     4.163000000     2.383000000     1.494000000
H     4.585000000     2.861000000     0.614000000
C     3.018000000     2.994000000     2.149000000
C     2.561000000     4.448000000     1.827000000
H     3.467000000     4.886000000     1.402000000
H     2.330000000     5.017000000     2.730000000
C     1.445000000     4.474000000     0.850000000
C     1.720000000     4.593000000    -0.518000000
H     2.762000000     4.619000000    -0.827000000
C     0.108000000     4.466000000     1.241000000
C    -0.920000000     4.291000000     0.325000000
H    -1.965000000     4.197000000     0.608000000
C    -0.634000000     4.458000000    -1.029000000
O    -1.668000000     4.462000000    -1.961000000
C    -1.958000000     3.121000000    -2.521000000
C    -3.440000000     2.773000000    -2.468000000
C    -3.899000000     1.774000000    -3.315000000
H    -3.216000000     1.401000000    -4.074000000
C    -4.291000000     3.404000000    -1.604000000
H    -3.965000000     4.269000000    -1.032000000
O    -1.308000000     2.994000000    -3.804000000
H    -1.540000000     2.407000000    -1.796000000
C     0.650000000     4.571000000    -1.432000000
C     0.925000000     4.587000000    -2.922000000
H     1.674000000     5.329000000    -3.208000000
H     0.088000000     5.088000000    -3.415000000
C     1.071000000     3.206000000    -3.495000000
C     2.353000000     2.586000000    -3.485000000
H     3.245000000     3.058000000    -3.080000000
C    -0.060000000     2.468000000    -3.937000000
C     0.185000000     1.204000000    -4.488000000
H    -0.695000000     0.589000000    -4.657000000
C     1.456000000     0.649000000    -4.462000000
O     1.501000000    -0.663000000    -4.750000000
C     1.527000000    -1.565000000    -3.643000000
C     0.637000000    -2.826000000    -3.720000000
C    -0.672000000    -2.628000000    -4.076000000
H    -1.058000000    -1.648000000    -4.345000000
C     1.070000000    -4.124000000    -3.387000000
H     2.089000000    -4.338000000    -3.074000000
O     2.902000000    -2.084000000    -3.425000000
H     1.204000000    -1.048000000    -2.727000000
C     2.555000000     1.308000000    -3.970000000
C     3.916000000     0.733000000    -3.899000000
H     4.707000000     1.485000000    -3.853000000
H     4.249000000     0.042000000    -4.676000000
C     3.992000000    -0.112000000    -2.566000000
C     3.587000000    -1.507000000    -2.464000000
C     3.753000000    -2.178000000    -1.280000000
H     3.430000000    -3.210000000    -1.167000000
C     4.365000000    -1.563000000    -0.199000000
O     4.365000000    -2.225000000     1.050000000
C     3.330000000    -1.790000000     1.923000000
H     2.683000000    -1.150000000     1.305000000
C     2.582000000    -2.952000000     2.611000000
C     2.039000000    -2.873000000     3.926000000
H     2.059000000    -1.938000000     4.480000000
C     2.272000000    -4.123000000     1.860000000
H     2.525000000    -4.238000000     0.809000000
C     1.601000000    -5.205000000     2.383000000
O     1.456000000    -6.431000000     1.782000000
C     1.175000000    -5.128000000     3.721000000
H     0.619000000    -5.919000000     4.218000000
C     1.335000000    -3.976000000     4.487000000
O     0.836000000    -3.936000000     5.774000000
C     0.601000000    -2.720000000     6.368000000
C    -0.402000000    -1.882000000     6.005000000
H    -1.082000000    -2.182000000     5.211000000
C     1.513000000    -2.253000000     7.307000000
H     2.346000000    -2.886000000     7.599000000
C     1.444000000    -1.010000000     7.939000000
H     2.135000000    -0.749000000     8.737000000
C     0.271000000    -0.271000000     7.756000000
H     0.099000000     0.662000000     8.288000000
C    -0.586000000    -0.695000000     6.780000000
O    -1.767000000    -0.010000000     6.557000000
C    -1.989000000     0.876000000     5.572000000
C    -3.352000000     1.274000000     5.216000000
H    -4.159000000     0.886000000     5.832000000
C    -3.562000000     2.173000000     4.168000000
O    -4.855000000     2.381000000     3.772000000
C    -5.233000000     3.245000000     2.829000000
C    -5.764000000     2.875000000     1.549000000
H    -5.615000000     1.836000000     1.266000000
C    -5.232000000     4.581000000     3.250000000
H    -4.893000000     4.936000000     4.220000000
C    -5.546000000     5.497000000     2.246000000
H    -5.574000000     6.560000000     2.473000000
C    -5.999000000     5.158000000     0.959000000
H    -6.231000000     5.900000000     0.199000000
C    -6.199000000     3.824000000     0.625000000
O    -6.543000000     3.516000000    -0.635000000
C    -5.630000000     2.931000000    -1.493000000
C    -6.030000000     1.877000000    -2.329000000
H    -7.068000000     1.558000000    -2.374000000
C    -5.181000000     1.271000000    -3.246000000
O    -5.603000000     0.330000000    -4.180000000
C    -4.703000000    -0.419000000    -4.921000000
C    -4.188000000    -1.575000000    -4.307000000
H    -4.515000000    -1.925000000    -3.331000000
C    -4.359000000    -0.085000000    -6.251000000
H    -4.779000000     0.827000000    -6.667000000
C    -3.594000000    -1.016000000    -6.986000000
H    -3.435000000    -0.875000000    -8.052000000
C    -3.152000000    -2.161000000    -6.428000000
H    -2.606000000    -2.883000000    -7.030000000
C    -3.381000000    -2.417000000    -5.107000000
O    -2.840000000    -3.516000000    -4.506000000
C    -1.494000000    -3.695000000    -4.208000000
C    -1.067000000    -4.982000000    -3.762000000
H    -1.744000000    -5.820000000    -3.903000000
C     0.201000000    -5.200000000    -3.314000000
O     0.633000000    -6.458000000    -3.000000000
C     1.456000000    -6.769000000    -1.921000000
C     2.407000000    -7.726000000    -2.088000000
H     2.604000000    -8.160000000    -3.065000000
C     3.161000000    -8.059000000    -1.034000000
H     3.996000000    -8.744000000    -1.160000000
C     2.858000000    -7.565000000     0.198000000
H     3.464000000    -7.851000000     1.054000000
C     1.756000000    -6.778000000     0.457000000
C     1.078000000    -6.360000000    -0.641000000
H     0.180000000    -5.772000000    -0.470000000
C    -0.994000000    -2.306000000    -0.514000000
H    -0.815000000    -3.322000000    -0.858000000
C     0.068000000    -1.455000000    -0.234000000
H     1.109000000    -1.703000000    -0.426000000
C    -0.134000000    -0.156000000     0.200000000
H     0.707000000     0.484000000     0.465000000
C    -1.410000000     0.226000000     0.493000000
H    -1.569000000     1.237000000     0.860000000
C    -2.487000000    -0.672000000     0.359000000
H    -3.437000000    -0.355000000     0.782000000
C    -2.263000000    -1.946000000    -0.173000000
C    -3.383000000    -3.000000000    -0.218000000
O    -4.492000000    -2.857000000     0.181000000
O    -3.224000000    -3.875000000    -1.023000000
O    -6.835000000    -7.744000000     1.685000000
H    -6.700000000    -6.866000000     2.042000000
H    -6.952000000    -7.605000000     0.746000000
O    -4.139000000    -1.587000000     4.206000000
H    -3.945000000    -1.934000000     5.077000000
H    -3.734000000    -0.720000000     4.198000000
O    -7.063000000    -6.682000000    -1.001000000
H    -7.932000000    -6.282000000    -0.977000000
H    -6.492000000    -5.993000000    -1.342000000
O    -4.495000000    -7.725000000    -3.613000000
H    -3.933000000    -7.502000000    -4.355000000
H    -4.214000000    -7.135000000    -2.913000000
O    -8.061000000    -4.208000000     0.786000000
H    -8.004000000    -4.922000000     1.421000000
H    -7.276000000    -4.304000000     0.247000000
O    -5.859000000    -1.405000000     1.937000000
H    -5.223000000    -1.768000000     1.321000000
H    -5.420000000    -1.444000000     2.786000000
O    -5.585000000    -4.984000000    -4.362000000
H    -5.881000000    -4.581000000    -5.178000000
H    -4.693000000    -5.277000000    -4.550000000
O    -2.512000000    -6.748000000     1.627000000
H    -2.351000000    -7.144000000     2.484000000
H    -2.769000000    -5.847000000     1.824000000
O    -5.600000000    -4.970000000     1.691000000
H    -5.220000000    -4.807000000     2.554000000
H    -5.038000000    -4.485000000     1.086000000
O    -2.764000000    -6.500000000    -1.401000000
H    -2.734000000    -6.787000000    -0.488000000
H    -2.909000000    -5.555000000    -1.350000000
O    -4.183000000    -8.731000000     2.299000000
H    -3.726000000    -8.246000000     1.612000000
H    -5.062000000    -8.352000000     2.316000000
O    -2.946000000    -4.014000000     2.853000000
H    -3.100000000    -4.217000000     3.776000000
H    -3.014000000    -3.061000000     2.803000000
O    -8.830000000    -0.407000000    -1.613000000
H    -8.711000000    -0.244000000    -2.549000000
H    -8.074000000    -0.940000000    -1.365000000
O    -1.294000000    -8.748000000    -2.461000000
H    -0.573000000    -8.402000000    -2.988000000
H    -1.724000000    -7.971000000    -2.104000000
O    -5.841000000    -4.546000000    -1.791000000
H    -5.561000000    -4.688000000    -2.695000000
H    -5.125000000    -4.051000000    -1.393000000
O    -6.248000000    -1.355000000    -1.393000000
H    -5.859000000    -0.672000000    -1.940000000
H    -5.498000000    -1.810000000    -1.010000000
O    -8.312000000    -2.353000000     3.015000000
H    -7.670000000    -1.733000000     2.669000000
H    -8.477000000    -2.957000000     2.291000000
O    -7.727000000    -2.912000000    -3.498000000
H    -7.353000000    -3.445000000    -4.199000000
H    -7.332000000    -3.258000000    -2.697000000
O    -9.931000000    -2.358000000     0.373000000
H    -9.221000000    -2.999000000     0.330000000
H    -9.587000000    -1.590000000    -0.083000000
