215
-1465.99698
C     4.328000000     1.809000000    -1.899000000
H     4.232000000     1.047000000    -2.669000000
C     4.265000000     1.421000000    -0.536000000
C     4.445000000     2.456000000     0.445000000
H     4.590000000     2.105000000     1.463000000
C     4.149000000    -0.041000000    -0.223000000
O     4.740000000    -0.908000000    -1.182000000
H     3.066000000    -0.214000000    -0.136000000
O     4.689000000    -0.413000000     1.053000000
C     3.956000000    -1.218000000     1.924000000
C     3.366000000    -0.608000000     3.006000000
H     3.556000000     0.419000000     3.308000000
C     2.494000000    -1.348000000     3.782000000
O     1.749000000    -0.626000000     4.704000000
C     2.138000000    -2.671000000     3.496000000
C     1.140000000    -3.391000000     4.342000000
H     1.415000000    -4.445000000     4.422000000
C    -0.286000000    -3.152000000     3.806000000
C    -0.748000000    -4.138000000     2.912000000
H    -0.075000000    -4.939000000     2.618000000
H     1.109000000    -3.066000000     5.385000000
C     2.794000000    -3.302000000     2.457000000
H     2.500000000    -4.286000000     2.101000000
C     3.737000000    -2.583000000     1.679000000
C     4.433000000    -3.312000000     0.557000000
H     4.712000000    -4.314000000     0.889000000
H     5.417000000    -2.848000000     0.457000000
C     3.625000000    -3.084000000    -0.710000000
C     2.614000000    -3.937000000    -1.041000000
H     2.532000000    -4.866000000    -0.482000000
C     3.840000000    -1.913000000    -1.534000000
C     3.007000000    -1.666000000    -2.648000000
H     3.152000000    -0.687000000    -3.097000000
C     2.056000000    -2.619000000    -3.000000000
O     1.247000000    -2.407000000    -4.066000000
C    -0.044000000    -1.824000000    -3.765000000
C    -0.373000000    -0.678000000    -4.739000000
C    -1.695000000    -0.341000000    -5.053000000
H    -2.568000000    -0.860000000    -4.668000000
C     0.684000000     0.030000000    -5.297000000
H     1.673000000    -0.218000000    -4.921000000
O    -1.081000000    -2.847000000    -3.886000000
H    -0.047000000    -1.432000000    -2.737000000
C     1.774000000    -3.739000000    -2.182000000
C     0.757000000    -4.803000000    -2.563000000
H     1.104000000    -5.807000000    -2.308000000
H     0.647000000    -4.896000000    -3.645000000
C    -0.610000000    -4.438000000    -2.025000000
C    -0.985000000    -4.898000000    -0.752000000
H    -0.271000000    -5.587000000    -0.307000000
C    -1.441000000    -3.490000000    -2.704000000
C    -2.568000000    -3.067000000    -2.075000000
H    -3.252000000    -2.426000000    -2.624000000
C    -2.979000000    -3.584000000    -0.814000000
O    -4.127000000    -3.022000000    -0.264000000
C    -4.047000000    -2.001000000     0.739000000
C    -4.977000000    -0.873000000     0.521000000
C    -4.953000000    -0.234000000    -0.687000000
H    -4.482000000    -0.698000000    -1.551000000
C    -5.566000000    -0.303000000     1.599000000
H    -5.465000000    -0.916000000     2.491000000
O    -3.967000000    -2.574000000     2.043000000
H    -3.027000000    -1.603000000     0.629000000
C    -2.175000000    -4.473000000    -0.124000000
C    -2.577000000    -4.951000000     1.285000000
H    -2.437000000    -5.990000000     1.590000000
H    -3.669000000    -4.922000000     1.316000000
C    -1.978000000    -3.987000000     2.275000000
C    -2.752000000    -2.868000000     2.542000000
C    -2.240000000    -1.812000000     3.312000000
H    -2.739000000    -0.858000000     3.462000000
C    -1.019000000    -1.936000000     3.937000000
O    -0.561000000    -0.856000000     4.677000000
C     0.552000000    -0.069000000     4.230000000
H     0.638000000    -0.020000000     3.135000000
C     0.314000000     1.399000000     4.535000000
C     1.277000000     2.405000000     4.866000000
H     2.298000000     2.122000000     5.110000000
C    -0.993000000     1.846000000     4.396000000
H    -1.816000000     1.272000000     3.979000000
C    -1.316000000     3.229000000     4.601000000
O    -2.662000000     3.586000000     4.369000000
C    -0.341000000     4.141000000     4.699000000
H    -0.521000000     5.195000000     4.504000000
C     1.022000000     3.747000000     4.880000000
O     2.045000000     4.694000000     5.007000000
C     3.299000000     4.653000000     4.403000000
C     3.346000000     4.887000000     3.046000000
H     2.449000000     5.101000000     2.471000000
C     4.462000000     4.289000000     5.110000000
H     4.296000000     4.018000000     6.149000000
C     5.714000000     4.187000000     4.494000000
H     6.670000000     3.921000000     4.937000000
C     5.727000000     4.359000000     3.074000000
H     6.705000000     4.246000000     2.614000000
C     4.569000000     4.677000000     2.336000000
O     4.665000000     4.863000000     1.003000000
C     4.548000000     3.801000000     0.101000000
C     4.424000000     4.130000000    -1.228000000
H     4.514000000     5.157000000    -1.572000000
C     4.301000000     3.181000000    -2.177000000
O     4.176000000     3.656000000    -3.531000000
C     4.053000000     2.985000000    -4.711000000
C     2.795000000     2.750000000    -5.231000000
H     1.909000000     3.013000000    -4.659000000
C     5.140000000     2.603000000    -5.514000000
H     6.142000000     2.833000000    -5.160000000
C     5.037000000     1.821000000    -6.645000000
H     5.915000000     1.428000000    -7.152000000
C     3.770000000     1.544000000    -7.138000000
H     3.629000000     0.856000000    -7.968000000
C     2.685000000     2.024000000    -6.401000000
O     1.411000000     1.754000000    -6.882000000
C     0.401000000     1.025000000    -6.217000000
C    -0.896000000     1.527000000    -6.419000000
H    -1.068000000     2.313000000    -7.150000000
C    -1.949000000     0.866000000    -5.763000000
O    -3.216000000     1.231000000    -6.153000000
C    -4.296000000     0.924000000    -5.386000000
C    -4.490000000     1.582000000    -4.140000000
H    -3.868000000     2.455000000    -3.960000000
C    -5.197000000    -0.053000000    -5.783000000
H    -5.046000000    -0.462000000    -6.779000000
C    -6.198000000    -0.481000000    -4.914000000
H    -6.840000000    -1.305000000    -5.215000000
C    -6.323000000     0.105000000    -3.654000000
H    -7.109000000    -0.201000000    -2.968000000
C    -5.413000000     1.067000000    -3.216000000
O    -5.650000000     1.661000000    -2.013000000
C    -5.593000000     0.985000000    -0.773000000
C    -6.162000000     1.623000000     0.322000000
H    -6.553000000     2.636000000     0.277000000
C    -6.161000000     0.973000000     1.544000000
O    -6.624000000     1.640000000     2.641000000
C    -5.767000000     1.716000000     3.731000000
C    -5.857000000     0.912000000     4.846000000
H    -6.703000000     0.242000000     4.974000000
C    -4.968000000     1.126000000     5.879000000
H    -5.018000000     0.595000000     6.826000000
C    -3.946000000     2.045000000     5.748000000
H    -3.317000000     2.236000000     6.614000000
C    -3.701000000     2.676000000     4.540000000
C    -4.652000000     2.514000000     3.565000000
H    -4.575000000     3.094000000     2.649000000
C    -2.220000000     2.382000000     0.376000000
H    -3.297000000     2.493000000     0.273000000
C    -1.624000000     1.223000000    -0.098000000
H    -2.174000000     0.393000000    -0.534000000
C    -0.251000000     1.054000000     0.008000000
H     0.177000000     0.051000000    -0.183000000
C     0.518000000     2.110000000     0.582000000
H     1.589000000     1.969000000     0.704000000
C    -0.092000000     3.316000000     0.954000000
H     0.432000000     4.095000000     1.502000000
C    -1.468000000     3.444000000     0.886000000
C    -2.186000000     4.768000000     1.100000000
O    -1.621000000     5.851000000     1.294000000
O    -3.406000000     4.777000000     1.058000000
O    -1.594000000     7.293000000    -2.122000000
H    -0.848000000     6.983000000    -1.609000000
H    -2.115000000     7.804000000    -1.503000000
O    -4.787000000     4.879000000    -4.867000000
H    -5.346000000     4.130000000    -4.662000000
H    -4.181000000     4.934000000    -4.129000000
O    -2.605000000     8.322000000     0.273000000
H    -3.534000000     8.545000000     0.204000000
H    -2.599000000     7.407000000     0.553000000
O    -2.842000000     6.886000000     3.423000000
H    -2.270000000     6.430000000     2.806000000
H    -3.720000000     6.561000000     3.222000000
O    -8.292000000     4.151000000     2.822000000
H    -7.356000000     3.994000000     2.951000000
H    -8.329000000     4.895000000     2.221000000
O    -2.496000000     5.012000000    -3.302000000
H    -2.089000000     4.463000000    -2.632000000
H    -2.311000000     5.909000000    -3.022000000
O    -5.300000000     4.708000000    -0.691000000
H    -4.520000000     4.724000000    -0.137000000
H    -5.426000000     3.783000000    -0.901000000
O    -0.254000000     4.634000000    -5.108000000
H    -0.267000000     4.768000000    -4.161000000
H    -0.279000000     3.683000000    -5.215000000
O    -6.417000000     7.047000000    -1.869000000
H    -6.269000000     6.136000000    -1.616000000
H    -5.864000000     7.554000000    -1.274000000
O    -1.393000000    10.793000000     0.837000000
H    -1.611000000     9.862000000     0.873000000
H    -0.866000000    10.886000000     0.043000000
O     2.463000000     7.822000000     0.291000000
H     2.616000000     8.280000000     1.118000000
H     3.309000000     7.846000000    -0.156000000
O    -6.462000000     8.550000000     3.148000000
H    -6.312000000     7.618000000     2.989000000
H    -7.345000000     8.591000000     3.513000000
O    -5.898000000     5.450000000     2.117000000
H    -5.141000000     5.016000000     1.724000000
H    -6.373000000     5.824000000     1.375000000
O     0.395000000     6.175000000    -0.690000000
H    -0.105000000     6.127000000     0.125000000
H     1.236000000     6.554000000    -0.433000000
O    -2.926000000     6.412000000     5.980000000
H    -2.899000000     6.461000000     5.025000000
H    -3.733000000     5.936000000     6.173000000
O     0.264000000     7.778000000     2.257000000
H     0.970000000     7.985000000     1.645000000
H    -0.403000000     7.353000000     1.718000000
O    -2.546000000     9.519000000     4.092000000
H    -2.744000000     8.676000000     3.685000000
H    -2.240000000     9.296000000     4.971000000
O    -5.422000000     8.313000000     0.312000000
H    -5.975000000     9.094000000     0.345000000
H    -5.291000000     8.074000000     1.230000000
O     0.096000000     3.916000000    -2.365000000
H     0.038000000     3.165000000    -1.774000000
H     0.410000000     4.632000000    -1.814000000
