215
-1439.62661
C    -0.389000000     4.173000000     3.346000000
H    -0.319000000     4.851000000     2.499000000
C     0.705000000     3.288000000     3.516000000
C     0.622000000     2.339000000     4.485000000
H     1.451000000     1.648000000     4.621000000
C     1.749000000     3.249000000     2.464000000
O     1.811000000     4.508000000     1.775000000
H     1.344000000     2.526000000     1.741000000
O     3.003000000     2.702000000     2.915000000
C     3.616000000     1.755000000     2.143000000
C     3.549000000     0.419000000     2.540000000
H     3.129000000     0.186000000     3.516000000
C     4.035000000    -0.610000000     1.808000000
O     3.853000000    -1.831000000     2.205000000
C     4.707000000    -0.306000000     0.590000000
C     5.191000000    -1.387000000    -0.342000000
H     5.884000000    -0.889000000    -1.023000000
C     4.098000000    -1.997000000    -1.239000000
C     3.910000000    -1.521000000    -2.567000000
H     4.551000000    -0.739000000    -2.968000000
H     5.768000000    -2.111000000     0.238000000
C     4.810000000     1.016000000     0.146000000
H     5.290000000     1.177000000    -0.816000000
C     4.258000000     2.038000000     0.923000000
C     4.279000000     3.459000000     0.485000000
H     5.130000000     3.609000000    -0.184000000
H     4.502000000     4.077000000     1.357000000
C     3.049000000     3.888000000    -0.231000000
C     2.933000000     3.638000000    -1.567000000
H     3.761000000     3.154000000    -2.078000000
C     1.907000000     4.459000000     0.417000000
C     0.671000000     4.611000000    -0.297000000
H    -0.233000000     4.786000000     0.282000000
C     0.645000000     4.353000000    -1.672000000
O    -0.561000000     4.484000000    -2.232000000
C    -1.118000000     3.201000000    -2.516000000
C    -2.585000000     3.206000000    -2.166000000
C    -3.390000000     2.103000000    -2.532000000
H    -2.965000000     1.282000000    -3.104000000
C    -3.117000000     4.280000000    -1.411000000
H    -2.532000000     5.164000000    -1.175000000
O    -0.995000000     2.694000000    -3.865000000
H    -0.695000000     2.440000000    -1.844000000
C     1.749000000     3.864000000    -2.296000000
C     1.774000000     3.528000000    -3.766000000
H     2.784000000     3.667000000    -4.156000000
H     1.168000000     4.216000000    -4.359000000
C     1.334000000     2.092000000    -4.191000000
C     2.271000000     1.104000000    -4.443000000
H     3.312000000     1.405000000    -4.532000000
C    -0.022000000     1.750000000    -4.097000000
C    -0.448000000     0.489000000    -4.479000000
H    -1.526000000     0.356000000    -4.524000000
C     0.486000000    -0.529000000    -4.618000000
O     0.001000000    -1.779000000    -4.741000000
C    -0.064000000    -2.614000000    -3.620000000
C    -1.259000000    -3.470000000    -3.489000000
C    -2.479000000    -3.258000000    -4.098000000
H    -2.481000000    -2.383000000    -4.742000000
C    -1.200000000    -4.499000000    -2.558000000
H    -0.246000000    -4.769000000    -2.114000000
O     1.115000000    -3.484000000    -3.506000000
H    -0.088000000    -1.944000000    -2.747000000
C     1.842000000    -0.178000000    -4.723000000
C     2.799000000    -1.352000000    -4.788000000
H     3.783000000    -0.908000000    -4.947000000
H     2.528000000    -2.059000000    -5.576000000
C     2.957000000    -2.061000000    -3.391000000
C     2.190000000    -3.077000000    -2.850000000
C     2.451000000    -3.673000000    -1.609000000
H     1.833000000    -4.494000000    -1.254000000
C     3.294000000    -3.040000000    -0.733000000
O     3.304000000    -3.467000000     0.592000000
C     2.753000000    -2.631000000     1.649000000
H     2.002000000    -2.003000000     1.148000000
C     2.066000000    -3.461000000     2.747000000
C     1.865000000    -2.971000000     4.073000000
H     2.362000000    -2.039000000     4.331000000
C     1.409000000    -4.616000000     2.399000000
H     1.496000000    -4.874000000     1.347000000
C     0.702000000    -5.341000000     3.316000000
O     0.017000000    -6.468000000     2.921000000
C     0.598000000    -4.888000000     4.604000000
H     0.214000000    -5.576000000     5.353000000
C     1.200000000    -3.699000000     5.019000000
O     1.065000000    -3.287000000     6.352000000
C     1.222000000    -1.935000000     6.655000000
C     0.159000000    -1.027000000     6.390000000
H    -0.765000000    -1.267000000     5.870000000
C     2.331000000    -1.483000000     7.354000000
H     3.066000000    -2.248000000     7.592000000
C     2.514000000    -0.187000000     7.745000000
H     3.439000000     0.147000000     8.209000000
C     1.609000000     0.728000000     7.212000000
H     1.587000000     1.807000000     7.345000000
C     0.390000000     0.313000000     6.564000000
O    -0.675000000     1.151000000     6.186000000
C    -0.490000000     2.226000000     5.363000000
C    -1.527000000     3.064000000     5.199000000
H    -2.440000000     2.986000000     5.784000000
C    -1.476000000     4.086000000     4.239000000
O    -2.599000000     4.877000000     4.037000000
C    -2.945000000     5.495000000     2.873000000
C    -3.605000000     4.812000000     1.809000000
H    -3.637000000     3.726000000     1.813000000
C    -3.156000000     6.866000000     3.050000000
H    -2.729000000     7.426000000     3.879000000
C    -3.787000000     7.653000000     2.097000000
H    -3.915000000     8.712000000     2.306000000
C    -4.386000000     7.012000000     1.010000000
H    -4.790000000     7.616000000     0.202000000
C    -4.220000000     5.673000000     0.850000000
O    -4.990000000     5.109000000    -0.158000000
C    -4.492000000     4.195000000    -0.992000000
C    -5.283000000     3.041000000    -1.309000000
H    -6.262000000     2.928000000    -0.849000000
C    -4.720000000     2.056000000    -2.081000000
O    -5.420000000     0.905000000    -2.287000000
C    -5.327000000     0.178000000    -3.393000000
C    -5.031000000    -1.187000000    -3.182000000
H    -5.051000000    -1.600000000    -2.177000000
C    -5.529000000     0.747000000    -4.677000000
H    -5.767000000     1.804000000    -4.776000000
C    -5.262000000    -0.067000000    -5.720000000
H    -5.107000000     0.378000000    -6.700000000
C    -5.098000000    -1.425000000    -5.526000000
H    -4.943000000    -2.012000000    -6.428000000
C    -5.020000000    -1.996000000    -4.283000000
O    -4.831000000    -3.336000000    -4.172000000
C    -3.653000000    -3.919000000    -3.739000000
C    -3.552000000    -4.887000000    -2.768000000
H    -4.471000000    -5.343000000    -2.408000000
C    -2.321000000    -5.185000000    -2.152000000
O    -2.359000000    -6.167000000    -1.158000000
C    -1.270000000    -6.579000000    -0.429000000
C    -0.405000000    -7.524000000    -1.012000000
H    -0.565000000    -7.783000000    -2.056000000
C     0.652000000    -8.043000000    -0.268000000
H     1.376000000    -8.760000000    -0.647000000
C     0.735000000    -7.819000000     1.091000000
H     1.545000000    -8.248000000     1.676000000
C    -0.072000000    -6.882000000     1.672000000
C    -1.098000000    -6.206000000     0.886000000
H    -1.768000000    -5.494000000     1.361000000
C    -1.030000000    -1.438000000     0.651000000
H    -1.043000000    -2.499000000     0.414000000
C     0.027000000    -0.686000000     0.178000000
H     0.822000000    -1.242000000    -0.312000000
C    -0.009000000     0.689000000     0.412000000
H     0.835000000     1.354000000     0.025000000
C    -1.135000000     1.269000000     1.010000000
H    -1.255000000     2.330000000     1.210000000
C    -2.052000000     0.432000000     1.621000000
H    -2.829000000     0.839000000     2.263000000
C    -2.099000000    -0.924000000     1.451000000
C    -3.243000000    -1.737000000     1.961000000
O    -3.923000000    -1.322000000     2.832000000
O    -3.326000000    -2.954000000     1.656000000
O    -7.225000000    -3.426000000    -1.192000000
H    -6.657000000    -3.933000000    -0.612000000
H    -7.447000000    -2.644000000    -0.686000000
O    -4.210000000    -1.536000000     7.031000000
H    -3.931000000    -1.077000000     7.823000000
H    -3.821000000    -1.035000000     6.314000000
O    -9.656000000    -1.098000000     3.454000000
H    -8.961000000    -0.536000000     3.110000000
H   -10.317000000    -0.488000000     3.780000000
O    -5.989000000    -2.965000000     3.742000000
H    -5.525000000    -3.800000000     3.819000000
H    -5.327000000    -2.304000000     3.948000000
O    -2.418000000    -8.673000000     3.780000000
H    -2.525000000    -7.747000000     3.995000000
H    -3.203000000    -8.895000000     3.279000000
O    -4.098000000     0.551000000     5.247000000
H    -3.835000000     0.192000000     4.400000000
H    -4.488000000     1.400000000     5.037000000
O    -2.212000000     0.367000000     8.371000000
H    -1.686000000     0.668000000     7.630000000
H    -1.631000000     0.450000000     9.127000000
O    -5.606000000     2.475000000     3.758000000
H    -5.788000000     3.063000000     4.491000000
H    -6.065000000     2.868000000     3.016000000
O    -8.176000000    -3.378000000     2.231000000
H    -7.306000000    -3.093000000     2.511000000
H    -8.779000000    -2.793000000     2.691000000
O    -8.220000000    -0.407000000    -1.727000000
H    -7.352000000    -0.087000000    -1.974000000
H    -8.735000000    -0.350000000    -2.532000000
O    -6.679000000    -5.658000000     2.206000000
H    -6.004000000    -5.382000000     1.585000000
H    -7.341000000    -4.968000000     2.162000000
O    -2.955000000    -6.273000000     4.943000000
H    -3.843000000    -6.211000000     5.296000000
H    -2.802000000    -5.423000000     4.530000000
O    -4.732000000    -4.742000000     0.427000000
H    -4.405000000    -3.989000000     0.919000000
H    -3.944000000    -5.173000000     0.097000000
O    -8.737000000     0.659000000     1.061000000
H    -7.910000000     0.329000000     1.412000000
H    -8.778000000     0.303000000     0.173000000
O    -6.660000000    -0.037000000     7.189000000
H    -5.707000000    -0.117000000     7.156000000
H    -6.946000000    -0.202000000     6.291000000
O    -2.436000000    -3.880000000     3.875000000
H    -2.586000000    -3.831000000     2.931000000
H    -2.848000000    -3.089000000     4.224000000
O    -6.920000000    -0.149000000     3.134000000
H    -6.083000000    -0.607000000     3.201000000
H    -6.704000000     0.770000000     3.296000000
O    -8.307000000    -2.083000000     5.730000000
H    -7.556000000    -2.242000000     5.159000000
H    -9.069000000    -2.291000000     5.188000000
O    -6.267000000    -3.495000000     7.144000000
H    -5.467000000    -2.970000000     7.152000000
H    -6.939000000    -2.903000000     6.807000000
