215
-1471.14730
C    -1.425000000     2.543000000     4.121000000
H    -1.527000000     3.383000000     3.438000000
C    -0.207000000     1.966000000     4.466000000
C    -0.185000000     1.018000000     5.466000000
H     0.755000000     0.567000000     5.775000000
C     1.050000000     2.424000000     3.712000000
O     1.073000000     3.824000000     3.422000000
H     0.865000000     1.965000000     2.730000000
O     2.250000000     1.940000000     4.277000000
C     3.113000000     1.249000000     3.428000000
C     3.184000000    -0.135000000     3.479000000
H     2.468000000    -0.695000000     4.075000000
C     3.834000000    -0.789000000     2.511000000
O     3.521000000    -2.125000000     2.462000000
C     4.598000000    -0.124000000     1.582000000
C     5.513000000    -0.940000000     0.610000000
H     6.320000000    -0.300000000     0.247000000
C     4.850000000    -1.324000000    -0.692000000
C     4.822000000    -0.411000000    -1.729000000
H     5.283000000     0.574000000    -1.717000000
H     5.888000000    -1.834000000     1.112000000
C     4.514000000     1.244000000     1.512000000
H     4.915000000     1.718000000     0.620000000
C     3.825000000     2.005000000     2.503000000
C     3.759000000     3.543000000     2.536000000
H     4.731000000     3.876000000     2.166000000
H     3.705000000     4.025000000     3.514000000
C     2.661000000     4.049000000     1.638000000
C     2.978000000     4.236000000     0.294000000
H     3.961000000     3.956000000    -0.075000000
C     1.334000000     4.245000000     2.134000000
C     0.346000000     4.610000000     1.231000000
H    -0.674000000     4.848000000     1.521000000
C     0.644000000     4.697000000    -0.091000000
O    -0.428000000     5.004000000    -0.926000000
C    -0.916000000     3.936000000    -1.684000000
C    -2.426000000     4.116000000    -1.861000000
C    -3.012000000     3.695000000    -3.070000000
H    -2.365000000     3.473000000    -3.915000000
C    -3.223000000     4.221000000    -0.700000000
H    -2.672000000     4.272000000     0.235000000
O    -0.251000000     3.959000000    -2.981000000
H    -0.744000000     2.969000000    -1.188000000
C     1.933000000     4.566000000    -0.603000000
C     2.204000000     4.721000000    -2.107000000
H     3.205000000     5.115000000    -2.293000000
H     1.501000000     5.441000000    -2.533000000
C     2.023000000     3.345000000    -2.797000000
C     3.064000000     2.520000000    -3.068000000
H     4.021000000     2.754000000    -2.610000000
C     0.753000000     3.091000000    -3.201000000
C     0.532000000     1.926000000    -3.862000000
H    -0.465000000     1.699000000    -4.230000000
C     1.521000000     1.014000000    -4.060000000
O     1.170000000    -0.197000000    -4.712000000
C     1.143000000    -1.280000000    -3.741000000
C    -0.071000000    -2.112000000    -3.861000000
C    -1.334000000    -1.504000000    -3.857000000
H    -1.382000000    -0.419000000    -3.893000000
C    -0.013000000    -3.513000000    -3.854000000
H     0.932000000    -4.049000000    -3.813000000
O     2.382000000    -1.982000000    -3.969000000
H     1.066000000    -0.792000000    -2.758000000
C     2.839000000     1.314000000    -3.717000000
C     4.006000000     0.360000000    -3.993000000
H     4.976000000     0.799000000    -4.234000000
H     3.872000000    -0.123000000    -4.964000000
C     4.150000000    -0.744000000    -2.927000000
C     3.363000000    -1.915000000    -2.989000000
C     3.325000000    -2.823000000    -1.866000000
H     2.577000000    -3.607000000    -1.783000000
C     4.087000000    -2.487000000    -0.767000000
O     3.836000000    -3.221000000     0.354000000
C     2.861000000    -2.746000000     1.333000000
H     2.306000000    -1.970000000     0.784000000
C     1.852000000    -3.815000000     1.719000000
C     0.927000000    -3.523000000     2.712000000
H     0.940000000    -2.605000000     3.294000000
C     1.748000000    -5.034000000     1.056000000
H     2.366000000    -5.100000000     0.164000000
C     0.682000000    -5.892000000     1.198000000
O     0.603000000    -7.038000000     0.546000000
C    -0.225000000    -5.596000000     2.204000000
H    -1.102000000    -6.227000000     2.322000000
C    -0.130000000    -4.413000000     2.872000000
O    -1.174000000    -4.099000000     3.693000000
C    -0.969000000    -3.624000000     4.943000000
C    -1.151000000    -2.243000000     5.215000000
H    -1.418000000    -1.562000000     4.411000000
C    -0.592000000    -4.544000000     5.896000000
H    -0.531000000    -5.609000000     5.687000000
C    -0.479000000    -4.121000000     7.255000000
H    -0.339000000    -4.867000000     8.033000000
C    -0.639000000    -2.780000000     7.531000000
H    -0.659000000    -2.357000000     8.532000000
C    -1.051000000    -1.851000000     6.555000000
O    -1.373000000    -0.584000000     6.905000000
C    -1.407000000     0.563000000     6.047000000
C    -2.618000000     1.167000000     5.754000000
H    -3.591000000     0.898000000     6.158000000
C    -2.653000000     2.168000000     4.764000000
O    -3.848000000     2.840000000     4.690000000
C    -4.129000000     3.851000000     3.808000000
C    -4.622000000     3.397000000     2.576000000
H    -4.802000000     2.334000000     2.437000000
C    -3.929000000     5.231000000     4.001000000
H    -3.424000000     5.595000000     4.893000000
C    -4.347000000     6.172000000     3.078000000
H    -4.127000000     7.220000000     3.268000000
C    -4.828000000     5.697000000     1.871000000
H    -5.073000000     6.405000000     1.083000000
C    -5.025000000     4.357000000     1.618000000
O    -5.402000000     3.977000000     0.338000000
C    -4.588000000     4.002000000    -0.755000000
C    -5.163000000     3.670000000    -1.956000000
H    -6.245000000     3.565000000    -1.982000000
C    -4.353000000     3.434000000    -3.072000000
O    -4.987000000     2.956000000    -4.210000000
C    -4.523000000     1.829000000    -4.824000000
C    -4.330000000     0.669000000    -4.052000000
H    -4.367000000     0.741000000    -2.968000000
C    -4.346000000     1.732000000    -6.212000000
H    -4.422000000     2.613000000    -6.843000000
C    -4.239000000     0.505000000    -6.778000000
H    -4.146000000     0.448000000    -7.859000000
C    -4.063000000    -0.643000000    -6.043000000
H    -3.860000000    -1.599000000    -6.518000000
C    -3.975000000    -0.521000000    -4.653000000
O    -3.727000000    -1.653000000    -3.889000000
C    -2.507000000    -2.252000000    -3.878000000
C    -2.393000000    -3.667000000    -3.891000000
H    -3.282000000    -4.291000000    -3.887000000
C    -1.173000000    -4.268000000    -3.776000000
O    -1.105000000    -5.592000000    -3.716000000
C    -0.303000000    -6.371000000    -2.895000000
C     0.335000000    -7.405000000    -3.572000000
H     0.266000000    -7.585000000    -4.641000000
C     1.026000000    -8.354000000    -2.809000000
H     1.527000000    -9.144000000    -3.362000000
C     1.081000000    -8.264000000    -1.383000000
H     1.568000000    -9.065000000    -0.833000000
C     0.491000000    -7.141000000    -0.796000000
C    -0.088000000    -6.111000000    -1.533000000
H    -0.690000000    -5.308000000    -1.117000000
C    -0.457000000    -1.311000000    -0.331000000
H    -0.187000000    -2.278000000    -0.748000000
C     0.495000000    -0.269000000    -0.287000000
H     1.518000000    -0.400000000    -0.632000000
C     0.222000000     0.964000000     0.277000000
H     1.005000000     1.701000000     0.400000000
C    -1.002000000     1.164000000     0.866000000
H    -1.209000000     2.123000000     1.333000000
C    -2.078000000     0.223000000     0.767000000
H    -3.082000000     0.423000000     1.133000000
C    -1.798000000    -1.050000000     0.176000000
C    -2.915000000    -2.057000000     0.151000000
O    -4.019000000    -1.784000000     0.612000000
O    -2.574000000    -3.176000000    -0.234000000
O    -7.302000000    -5.571000000     0.362000000
H    -7.031000000    -4.676000000     0.566000000
H    -6.909000000    -6.104000000     1.053000000
O    -4.470000000    -2.258000000     5.895000000
H    -3.984000000    -1.934000000     5.137000000
H    -4.913000000    -3.045000000     5.578000000
O    -5.508000000    -9.020000000     0.895000000
H    -5.092000000    -8.304000000     1.375000000
H    -4.962000000    -9.136000000     0.117000000
O    -6.192000000    -3.374000000     1.222000000
H    -5.697000000    -3.510000000     2.030000000
H    -5.630000000    -2.811000000     0.689000000
O    -3.922000000    -1.445000000     3.110000000
H    -3.939000000    -1.425000000     2.153000000
H    -4.663000000    -0.900000000     3.374000000
O    -6.444000000    -2.514000000    -5.417000000
H    -6.263000000    -3.218000000    -4.794000000
H    -5.757000000    -1.867000000    -5.255000000
O    -5.944000000     0.276000000     3.738000000
H    -6.420000000     1.039000000     3.410000000
H    -6.406000000     0.032000000     4.540000000
O    -8.683000000    -1.391000000     1.119000000
H    -8.230000000    -2.195000000     1.373000000
H    -9.376000000    -1.684000000     0.527000000
O    -8.250000000    -5.009000000    -2.340000000
H    -9.133000000    -4.655000000    -2.232000000
H    -8.307000000    -5.903000000    -2.003000000
O    -8.412000000    -1.549000000    -2.576000000
H    -7.495000000    -1.400000000    -2.346000000
H    -8.624000000    -0.841000000    -3.185000000
O    -4.877000000    -6.682000000     2.085000000
H    -5.519000000    -6.476000000     2.763000000
H    -4.428000000    -5.853000000     1.921000000
O    -4.225000000    -5.115000000    -1.010000000
H    -4.764000000    -5.174000000    -0.222000000
H    -3.567000000    -4.451000000    -0.801000000
O    -3.770000000    -4.200000000     2.333000000
H    -3.408000000    -3.929000000     1.490000000
H    -3.338000000    -3.635000000     2.973000000
O    -0.567000000    -1.363000000    -7.065000000
H    -0.775000000    -0.450000000    -6.868000000
H    -0.844000000    -1.845000000    -6.286000000
O    -3.323000000    -7.243000000    -2.426000000
H    -3.481000000    -6.888000000    -3.301000000
H    -3.732000000    -6.612000000    -1.833000000
O    -6.055000000    -3.731000000    -2.899000000
H    -6.771000000    -4.283000000    -2.585000000
H    -5.265000000    -4.137000000    -2.542000000
O    -5.997000000    -1.531000000    -1.421000000
H    -5.285000000    -1.777000000    -0.830000000
H    -6.043000000    -2.249000000    -2.052000000
O    -7.535000000     0.543000000    -0.303000000
H    -7.744000000    -0.005000000     0.453000000
H    -6.900000000     0.031000000    -0.803000000
O    -5.957000000    -4.745000000     5.435000000
H    -6.847000000    -4.540000000     5.721000000
H    -6.047000000    -5.551000000     4.927000000
