215
-1442.16573
C    -0.763000000     4.189000000     3.451000000
H    -0.715000000     4.998000000     2.727000000
C     0.210000000     3.125000000     3.489000000
C    -0.084000000     1.996000000     4.257000000
H     0.618000000     1.166000000     4.284000000
C     1.322000000     3.019000000     2.535000000
O     1.606000000     4.330000000     2.067000000
H     1.055000000     2.284000000     1.761000000
O     2.467000000     2.492000000     3.300000000
C     3.241000000     1.630000000     2.525000000
C     3.328000000     0.320000000     3.009000000
H     2.856000000     0.100000000     3.963000000
C     4.078000000    -0.631000000     2.369000000
O     3.884000000    -1.932000000     2.638000000
C     4.845000000    -0.266000000     1.283000000
C     5.524000000    -1.358000000     0.374000000
H     6.427000000    -0.915000000    -0.052000000
C     4.488000000    -1.776000000    -0.678000000
C     4.498000000    -1.289000000    -1.966000000
H     5.191000000    -0.484000000    -2.198000000
H     5.873000000    -2.225000000     0.939000000
C     4.901000000     1.046000000     0.856000000
H     5.560000000     1.307000000     0.031000000
C     4.000000000     1.992000000     1.391000000
C     4.216000000     3.434000000     1.020000000
H     5.143000000     3.616000000     0.471000000
H     4.264000000     3.949000000     1.981000000
C     3.053000000     3.913000000     0.120000000
C     3.160000000     3.687000000    -1.272000000
H     4.057000000     3.255000000    -1.708000000
C     1.876000000     4.369000000     0.727000000
C     0.821000000     4.715000000    -0.124000000
H    -0.104000000     5.009000000     0.366000000
C     0.821000000     4.500000000    -1.482000000
O    -0.359000000     4.422000000    -2.100000000
C    -0.903000000     3.126000000    -2.497000000
C    -2.436000000     3.100000000    -2.145000000
C    -3.151000000     2.056000000    -2.794000000
H    -2.775000000     1.289000000    -3.466000000
C    -2.987000000     3.933000000    -1.163000000
H    -2.316000000     4.574000000    -0.597000000
O    -0.712000000     2.829000000    -3.910000000
H    -0.426000000     2.331000000    -1.904000000
C     2.007000000     3.916000000    -2.091000000
C     2.100000000     3.641000000    -3.539000000
H     3.140000000     3.793000000    -3.836000000
H     1.490000000     4.428000000    -3.989000000
C     1.661000000     2.218000000    -3.940000000
C     2.702000000     1.248000000    -3.914000000
H     3.763000000     1.372000000    -3.713000000
C     0.282000000     1.896000000    -4.141000000
C     0.001000000     0.592000000    -4.325000000
H    -1.002000000     0.258000000    -4.578000000
C     1.026000000    -0.335000000    -4.428000000
O     0.620000000    -1.575000000    -4.591000000
C     0.521000000    -2.465000000    -3.465000000
C    -0.781000000    -3.299000000    -3.551000000
C    -1.904000000    -2.835000000    -4.260000000
H    -1.865000000    -2.085000000    -5.045000000
C    -1.040000000    -4.295000000    -2.527000000
H    -0.200000000    -4.584000000    -1.901000000
O     1.707000000    -3.278000000    -3.443000000
H     0.593000000    -1.784000000    -2.604000000
C     2.345000000    -0.041000000    -4.238000000
C     3.421000000    -1.086000000    -4.250000000
H     4.356000000    -0.550000000    -4.429000000
H     3.218000000    -1.752000000    -5.090000000
C     3.571000000    -1.763000000    -2.908000000
C     2.747000000    -2.869000000    -2.602000000
C     2.837000000    -3.443000000    -1.297000000
H     2.263000000    -4.338000000    -1.073000000
C     3.701000000    -2.887000000    -0.375000000
O     3.620000000    -3.368000000     0.883000000
C     2.885000000    -2.667000000     1.853000000
H     2.256000000    -1.964000000     1.287000000
C     2.116000000    -3.585000000     2.823000000
C     1.752000000    -3.174000000     4.125000000
H     2.236000000    -2.254000000     4.442000000
C     1.616000000    -4.799000000     2.359000000
H     1.948000000    -5.207000000     1.408000000
C     0.690000000    -5.516000000     3.083000000
O     0.204000000    -6.737000000     2.586000000
C     0.313000000    -5.051000000     4.295000000
H    -0.432000000    -5.550000000     4.908000000
C     0.885000000    -3.943000000     4.874000000
O     0.567000000    -3.516000000     6.128000000
C     0.519000000    -2.207000000     6.525000000
C    -0.362000000    -1.336000000     5.815000000
H    -0.875000000    -1.650000000     4.909000000
C     1.252000000    -1.733000000     7.656000000
H     2.011000000    -2.349000000     8.130000000
C     0.985000000    -0.405000000     8.071000000
H     1.471000000    -0.109000000     8.997000000
C     0.076000000     0.466000000     7.381000000
H    -0.208000000     1.414000000     7.831000000
C    -0.613000000    -0.027000000     6.280000000
O    -1.525000000     0.825000000     5.720000000
C    -1.233000000     1.958000000     5.000000000
C    -2.116000000     3.098000000     5.090000000
H    -3.046000000     2.934000000     5.628000000
C    -1.911000000     4.215000000     4.260000000
O    -2.940000000     5.205000000     4.228000000
C    -3.370000000     5.732000000     3.034000000
C    -3.824000000     4.860000000     2.053000000
H    -3.651000000     3.796000000     2.187000000
C    -3.633000000     7.069000000     2.992000000
H    -3.349000000     7.738000000     3.800000000
C    -4.315000000     7.491000000     1.862000000
H    -4.627000000     8.526000000     1.753000000
C    -4.730000000     6.650000000     0.855000000
H    -5.460000000     6.944000000     0.105000000
C    -4.442000000     5.287000000     0.916000000
O    -5.038000000     4.478000000    -0.002000000
C    -4.348000000     3.739000000    -0.907000000
C    -5.106000000     2.873000000    -1.715000000
H    -6.180000000     2.919000000    -1.552000000
C    -4.504000000     2.007000000    -2.590000000
O    -5.286000000     1.004000000    -3.099000000
C    -5.083000000     0.289000000    -4.213000000
C    -4.887000000    -1.106000000    -4.003000000
H    -4.860000000    -1.513000000    -2.996000000
C    -5.265000000     0.782000000    -5.513000000
H    -5.537000000     1.823000000    -5.663000000
C    -5.077000000    -0.055000000    -6.631000000
H    -5.101000000     0.292000000    -7.661000000
C    -4.749000000    -1.356000000    -6.437000000
H    -4.471000000    -1.872000000    -7.353000000
C    -4.624000000    -1.887000000    -5.142000000
O    -4.187000000    -3.170000000    -4.941000000
C    -3.127000000    -3.491000000    -4.152000000
C    -3.267000000    -4.518000000    -3.241000000
H    -4.232000000    -5.013000000    -3.171000000
C    -2.242000000    -4.887000000    -2.320000000
O    -2.383000000    -5.941000000    -1.413000000
C    -1.327000000    -6.516000000    -0.773000000
C    -0.340000000    -7.187000000    -1.535000000
H    -0.496000000    -7.361000000    -2.596000000
C     0.761000000    -7.743000000    -0.983000000
H     1.582000000    -8.129000000    -1.582000000
C     0.919000000    -7.615000000     0.409000000
H     1.711000000    -8.195000000     0.877000000
C     0.044000000    -6.871000000     1.210000000
C    -1.116000000    -6.369000000     0.602000000
H    -1.828000000    -5.814000000     1.207000000
C    -1.210000000    -2.799000000     1.775000000
H    -1.167000000    -3.864000000     1.989000000
C    -0.373000000    -2.301000000     0.803000000
H     0.308000000    -2.947000000     0.255000000
C    -0.569000000    -0.966000000     0.377000000
H     0.097000000    -0.475000000    -0.300000000
C    -1.515000000    -0.124000000     0.953000000
H    -1.593000000     0.871000000     0.522000000
C    -2.357000000    -0.678000000     1.910000000
H    -2.979000000     0.045000000     2.432000000
C    -2.176000000    -1.999000000     2.363000000
C    -3.022000000    -2.572000000     3.433000000
O    -4.077000000    -2.076000000     3.694000000
O    -2.864000000    -3.751000000     3.814000000
O    -5.041000000    -3.478000000    -0.364000000
H    -4.757000000    -4.389000000    -0.286000000
H    -4.260000000    -2.965000000    -0.156000000
O    -1.392000000    -3.336000000     8.778000000
H    -1.882000000    -4.152000000     8.876000000
H    -1.825000000    -2.881000000     8.056000000
O    -4.033000000    -1.322000000     8.973000000
H    -3.305000000    -0.722000000     9.133000000
H    -4.174000000    -1.281000000     8.027000000
O    -5.613000000    -8.272000000     2.837000000
H    -5.891000000    -7.406000000     3.134000000
H    -5.764000000    -8.261000000     1.892000000
O    -6.041000000    -3.617000000     4.836000000
H    -6.758000000    -3.102000000     4.466000000
H    -5.278000000    -3.379000000     4.309000000
O    -4.224000000    -0.792000000     6.191000000
H    -4.368000000    -1.377000000     5.447000000
H    -3.608000000    -0.136000000     5.864000000
O    -5.640000000     1.547000000     4.240000000
H    -5.834000000     2.107000000     4.992000000
H    -5.751000000     2.120000000     3.481000000
O    -8.623000000    -2.404000000     4.496000000
H    -7.985000000    -1.787000000     4.136000000
H    -9.474000000    -2.018000000     4.286000000
O    -8.494000000    -1.571000000    -0.262000000
H    -8.069000000    -0.955000000     0.335000000
H    -8.300000000    -1.230000000    -1.135000000
O    -7.525000000    -4.032000000     1.115000000
H    -8.267000000    -3.475000000     0.881000000
H    -6.757000000    -3.547000000     0.811000000
O    -3.574000000    -8.117000000     5.029000000
H    -4.038000000    -8.086000000     4.193000000
H    -3.350000000    -7.205000000     5.213000000
O    -4.233000000    -4.934000000     1.813000000
H    -3.743000000    -4.403000000     2.441000000
H    -5.119000000    -4.973000000     2.172000000
O    -7.082000000     0.167000000     7.350000000
H    -7.250000000    -0.774000000     7.401000000
H    -6.371000000     0.250000000     6.714000000
O    -2.985000000    -5.537000000     5.921000000
H    -2.905000000    -4.797000000     5.319000000
H    -3.674000000    -5.276000000     6.532000000
O    -2.796000000    -7.761000000     7.965000000
H    -2.988000000    -8.569000000     7.488000000
H    -2.921000000    -7.066000000     7.319000000
O    -6.505000000    -1.042000000     3.723000000
H    -5.577000000    -1.255000000     3.623000000
H    -6.529000000    -0.086000000     3.762000000
O    -6.875000000    -6.228000000     4.131000000
H    -7.765000000    -6.092000000     4.455000000
H    -6.384000000    -5.473000000     4.456000000
O    -7.593000000    -2.633000000     7.576000000
H    -8.117000000    -3.385000000     7.852000000
H    -7.557000000    -2.704000000     6.622000000
O    -5.368000000    -4.804000000     7.127000000
H    -5.111000000    -4.116000000     7.740000000
H    -5.731000000    -4.333000000     6.376000000
