215
-1456.22337
C    -0.068000000     4.584000000     3.020000000
H     0.048000000     5.296000000     2.207000000
C     0.844000000     3.452000000     3.163000000
C     0.772000000     2.618000000     4.267000000
H     1.489000000     1.805000000     4.348000000
C     1.909000000     3.211000000     2.034000000
O     2.224000000     4.365000000     1.199000000
H     1.419000000     2.436000000     1.426000000
O     3.064000000     2.649000000     2.605000000
C     3.649000000     1.623000000     1.918000000
C     3.436000000     0.380000000     2.464000000
H     2.890000000     0.241000000     3.394000000
C     3.910000000    -0.736000000     1.815000000
O     3.600000000    -1.976000000     2.290000000
C     4.534000000    -0.560000000     0.577000000
C     5.041000000    -1.762000000    -0.165000000
H     5.998000000    -1.507000000    -0.626000000
C     4.005000000    -2.469000000    -1.066000000
C     3.938000000    -2.202000000    -2.427000000
H     4.597000000    -1.444000000    -2.844000000
H     5.418000000    -2.508000000     0.537000000
C     4.721000000     0.696000000     0.086000000
H     5.258000000     0.866000000    -0.844000000
C     4.283000000     1.843000000     0.692000000
C     4.619000000     3.232000000     0.177000000
H     5.551000000     3.173000000    -0.389000000
H     4.825000000     3.942000000     0.981000000
C     3.482000000     3.636000000    -0.705000000
C     3.464000000     3.357000000    -2.081000000
H     4.330000000     2.895000000    -2.549000000
C     2.328000000     4.147000000    -0.110000000
C     1.291000000     4.559000000    -0.946000000
H     0.437000000     5.028000000    -0.466000000
C     1.275000000     4.336000000    -2.296000000
O     0.062000000     4.438000000    -2.860000000
C    -0.725000000     3.277000000    -2.769000000
C    -2.142000000     3.483000000    -2.263000000
C    -3.130000000     2.409000000    -2.336000000
H    -2.777000000     1.470000000    -2.756000000
C    -2.512000000     4.660000000    -1.601000000
H    -1.820000000     5.494000000    -1.521000000
O    -0.817000000     2.593000000    -4.114000000
H    -0.212000000     2.601000000    -2.070000000
C     2.289000000     3.517000000    -2.835000000
C     2.235000000     2.986000000    -4.289000000
H     3.187000000     2.930000000    -4.821000000
H     1.659000000     3.683000000    -4.901000000
C     1.498000000     1.692000000    -4.298000000
C     2.245000000     0.495000000    -4.306000000
H     3.325000000     0.589000000    -4.228000000
C     0.110000000     1.548000000    -4.299000000
C    -0.448000000     0.271000000    -4.368000000
H    -1.515000000     0.239000000    -4.161000000
C     0.312000000    -0.887000000    -4.494000000
O    -0.411000000    -2.077000000    -4.400000000
C    -0.293000000    -2.896000000    -3.169000000
C    -1.573000000    -3.655000000    -2.847000000
C    -2.801000000    -3.094000000    -3.108000000
H    -2.757000000    -2.154000000    -3.652000000
C    -1.585000000    -4.862000000    -2.141000000
H    -0.668000000    -5.409000000    -1.935000000
O     0.817000000    -3.891000000    -3.293000000
H    -0.067000000    -2.301000000    -2.272000000
C     1.681000000    -0.811000000    -4.521000000
C     2.617000000    -2.062000000    -4.610000000
H     3.568000000    -1.678000000    -4.984000000
H     2.163000000    -2.822000000    -5.248000000
C     2.841000000    -2.649000000    -3.238000000
C     1.954000000    -3.571000000    -2.726000000
C     2.093000000    -4.010000000    -1.406000000
H     1.360000000    -4.658000000    -0.934000000
C     3.148000000    -3.436000000    -0.584000000
O     3.116000000    -3.736000000     0.715000000
C     2.541000000    -2.745000000     1.564000000
H     1.938000000    -2.034000000     0.979000000
C     1.583000000    -3.389000000     2.504000000
C     1.169000000    -2.679000000     3.667000000
H     1.523000000    -1.654000000     3.749000000
C     1.088000000    -4.677000000     2.295000000
H     1.321000000    -5.309000000     1.442000000
C     0.053000000    -5.150000000     3.167000000
O    -0.602000000    -6.362000000     2.996000000
C    -0.343000000    -4.407000000     4.295000000
H    -0.958000000    -4.825000000     5.088000000
C     0.242000000    -3.156000000     4.556000000
O    -0.104000000    -2.480000000     5.727000000
C     0.496000000    -1.365000000     6.230000000
C    -0.089000000    -0.077000000     6.007000000
H    -0.886000000     0.086000000     5.286000000
C     1.641000000    -1.530000000     6.935000000
H     2.045000000    -2.539000000     6.944000000
C     2.240000000    -0.378000000     7.444000000
H     3.210000000    -0.414000000     7.932000000
C     1.623000000     0.850000000     7.333000000
H     2.000000000     1.770000000     7.774000000
C     0.405000000     1.016000000     6.657000000
O    -0.219000000     2.198000000     6.457000000
C    -0.186000000     2.841000000     5.244000000
C    -1.177000000     3.799000000     5.032000000
H    -2.058000000     3.851000000     5.667000000
C    -1.108000000     4.691000000     3.992000000
O    -2.176000000     5.555000000     3.865000000
C    -2.456000000     6.254000000     2.703000000
C    -3.242000000     5.658000000     1.662000000
H    -3.565000000     4.625000000     1.766000000
C    -2.003000000     7.603000000     2.592000000
H    -1.366000000     8.027000000     3.364000000
C    -2.428000000     8.304000000     1.433000000
H    -2.075000000     9.325000000     1.313000000
C    -3.334000000     7.761000000     0.540000000
H    -3.669000000     8.255000000    -0.369000000
C    -3.649000000     6.412000000     0.597000000
O    -4.280000000     5.828000000    -0.467000000
C    -3.831000000     4.695000000    -1.017000000
C    -4.697000000     3.614000000    -1.079000000
H    -5.697000000     3.617000000    -0.653000000
C    -4.339000000     2.492000000    -1.757000000
O    -5.157000000     1.412000000    -1.697000000
C    -5.336000000     0.478000000    -2.770000000
C    -5.491000000    -0.846000000    -2.431000000
H    -5.480000000    -1.208000000    -1.406000000
C    -5.248000000     0.838000000    -4.097000000
H    -4.965000000     1.869000000    -4.294000000
C    -5.299000000    -0.073000000    -5.139000000
H    -5.100000000     0.212000000    -6.169000000
C    -5.287000000    -1.436000000    -4.773000000
H    -5.153000000    -2.201000000    -5.533000000
C    -5.383000000    -1.841000000    -3.429000000
O    -5.240000000    -3.145000000    -3.102000000
C    -4.026000000    -3.680000000    -2.775000000
C    -4.033000000    -4.954000000    -2.158000000
H    -4.937000000    -5.555000000    -2.205000000
C    -2.826000000    -5.524000000    -1.805000000
O    -2.794000000    -6.810000000    -1.289000000
C    -1.865000000    -7.179000000    -0.337000000
C    -1.029000000    -8.276000000    -0.628000000
H    -1.049000000    -8.853000000    -1.549000000
C    -0.102000000    -8.750000000     0.334000000
H     0.480000000    -9.652000000     0.164000000
C     0.022000000    -8.118000000     1.560000000
H     0.753000000    -8.528000000     2.252000000
C    -0.744000000    -6.974000000     1.769000000
C    -1.677000000    -6.452000000     0.817000000
H    -2.285000000    -5.608000000     1.132000000
C    -2.241000000    -1.664000000     1.317000000
H    -2.743000000    -2.627000000     1.350000000
C    -1.851000000    -1.144000000     0.070000000
H    -2.108000000    -1.709000000    -0.823000000
C    -1.415000000     0.177000000    -0.011000000
H    -1.120000000     0.682000000    -0.919000000
C    -1.622000000     0.971000000     1.089000000
H    -1.483000000     2.049000000     1.092000000
C    -2.007000000     0.433000000     2.320000000
H    -2.239000000     1.125000000     3.126000000
C    -2.203000000    -0.884000000     2.517000000
C    -2.735000000    -1.482000000     3.792000000
O    -3.021000000    -0.804000000     4.752000000
O    -3.215000000    -2.665000000     3.728000000
O    -5.876000000    -2.002000000     3.201000000
H    -6.377000000    -2.600000000     3.756000000
H    -4.965000000    -2.274000000     3.317000000
O    -1.456000000    -0.699000000     9.532000000
H    -1.720000000     0.182000000     9.267000000
H    -2.158000000    -0.996000000    10.110000000
O    -3.250000000     0.755000000     7.143000000
H    -4.199000000     0.753000000     7.264000000
H    -3.119000000     0.399000000     6.265000000
O    -2.883000000    -2.762000000     8.068000000
H    -2.343000000    -1.977000000     7.982000000
H    -3.570000000    -2.654000000     7.410000000
O    -5.501000000    -6.527000000     6.176000000
H    -4.772000000    -6.160000000     5.676000000
H    -5.237000000    -6.430000000     7.091000000
O    -5.610000000     3.268000000     3.028000000
H    -5.592000000     3.098000000     2.086000000
H    -5.374000000     2.431000000     3.427000000
O    -2.224000000     2.506000000     8.762000000
H    -2.556000000     1.985000000     8.031000000
H    -1.326000000     2.725000000     8.511000000
O    -3.484000000    -7.579000000     4.184000000
H    -3.566000000    -6.627000000     4.128000000
H    -3.009000000    -7.732000000     5.001000000
O    -6.961000000    -3.564000000     5.138000000
H    -7.470000000    -4.241000000     5.585000000
H    -6.210000000    -3.411000000     5.711000000
O    -4.378000000    -5.024000000     3.991000000
H    -3.830000000    -4.251000000     3.854000000
H    -5.152000000    -4.692000000     4.445000000
O    -9.315000000    -3.238000000     3.776000000
H    -9.001000000    -3.597000000     2.946000000
H    -8.566000000    -3.314000000     4.368000000
O    -7.706000000    -1.246000000     1.499000000
H    -7.042000000    -1.656000000     2.054000000
H    -7.297000000    -0.435000000     1.195000000
O    -6.125000000    -0.071000000     7.490000000
H    -6.408000000     0.171000000     8.372000000
H    -6.904000000     0.045000000     6.947000000
O    -1.953000000    -5.390000000     7.751000000
H    -1.028000000    -5.202000000     7.590000000
H    -2.390000000    -4.546000000     7.641000000
O    -4.811000000    -2.236000000     6.270000000
H    -4.240000000    -1.845000000     5.609000000
H    -5.293000000    -1.496000000     6.639000000
O    -5.776000000    -6.656000000     2.168000000
H    -5.144000000    -6.996000000     1.535000000
H    -5.252000000    -6.130000000     2.772000000
O    -4.952000000     3.681000000     5.677000000
H    -4.515000000     3.522000000     4.840000000
H    -5.366000000     4.537000000     5.573000000
O    -6.634000000     1.152000000     0.786000000
H    -7.265000000     1.837000000     0.564000000
H    -6.057000000     1.100000000     0.024000000
O    -5.066000000     0.760000000     3.810000000
H    -4.475000000     0.130000000     4.221000000
H    -5.710000000     0.221000000     3.350000000
