215
-1452.73988
C     4.276000000     2.155000000    -1.971000000
H     4.271000000     1.406000000    -2.758000000
C     4.206000000     1.835000000    -0.618000000
C     3.916000000     2.868000000     0.320000000
H     3.721000000     2.544000000     1.339000000
C     4.100000000     0.359000000    -0.162000000
O     4.724000000    -0.479000000    -1.153000000
H     3.041000000     0.068000000    -0.104000000
O     4.708000000     0.134000000     1.115000000
C     3.946000000    -0.611000000     2.016000000
C     3.246000000     0.068000000     2.994000000
H     3.195000000     1.152000000     2.928000000
C     2.503000000    -0.698000000     3.911000000
O     1.587000000    -0.099000000     4.797000000
C     2.440000000    -2.126000000     3.779000000
C     1.378000000    -2.904000000     4.489000000
H     1.725000000    -3.909000000     4.739000000
C     0.011000000    -2.960000000     3.882000000
C    -0.320000000    -3.927000000     2.997000000
H     0.444000000    -4.671000000     2.785000000
H     1.321000000    -2.482000000     5.495000000
C     3.063000000    -2.718000000     2.729000000
H     3.021000000    -3.790000000     2.551000000
C     3.891000000    -1.972000000     1.839000000
C     4.653000000    -2.729000000     0.763000000
H     4.894000000    -3.737000000     1.107000000
H     5.639000000    -2.280000000     0.632000000
C     4.044000000    -2.791000000    -0.660000000
C     3.163000000    -3.844000000    -0.985000000
H     3.071000000    -4.651000000    -0.263000000
C     4.133000000    -1.668000000    -1.494000000
C     3.311000000    -1.592000000    -2.576000000
H     3.300000000    -0.695000000    -3.189000000
C     2.464000000    -2.584000000    -2.917000000
O     1.678000000    -2.370000000    -4.060000000
C     0.302000000    -1.923000000    -3.863000000
C    -0.058000000    -0.801000000    -4.855000000
C    -1.407000000    -0.509000000    -4.956000000
H    -2.198000000    -1.064000000    -4.457000000
C     0.923000000    -0.017000000    -5.446000000
H     1.957000000    -0.252000000    -5.206000000
O    -0.637000000    -3.044000000    -3.862000000
H     0.248000000    -1.417000000    -2.888000000
C     2.297000000    -3.702000000    -2.105000000
C     1.352000000    -4.784000000    -2.491000000
H     1.715000000    -5.747000000    -2.126000000
H     1.244000000    -4.916000000    -3.569000000
C    -0.041000000    -4.465000000    -1.915000000
C    -0.507000000    -5.072000000    -0.777000000
H     0.182000000    -5.733000000    -0.257000000
C    -0.950000000    -3.664000000    -2.670000000
C    -2.203000000    -3.341000000    -2.134000000
H    -2.780000000    -2.583000000    -2.658000000
C    -2.470000000    -3.668000000    -0.817000000
O    -3.707000000    -3.289000000    -0.322000000
C    -3.728000000    -2.266000000     0.784000000
C    -4.820000000    -1.214000000     0.510000000
C    -5.127000000    -0.833000000    -0.793000000
H    -4.650000000    -1.196000000    -1.699000000
C    -5.362000000    -0.518000000     1.588000000
H    -5.091000000    -0.769000000     2.611000000
O    -3.713000000    -2.869000000     2.054000000
H    -2.800000000    -1.700000000     0.613000000
C    -1.589000000    -4.502000000    -0.110000000
C    -1.923000000    -5.002000000     1.270000000
H    -1.470000000    -5.961000000     1.529000000
H    -2.994000000    -5.143000000     1.426000000
C    -1.545000000    -3.900000000     2.278000000
C    -2.497000000    -2.962000000     2.608000000
C    -2.143000000    -1.934000000     3.528000000
H    -2.874000000    -1.157000000     3.738000000
C    -0.911000000    -1.902000000     4.135000000
O    -0.638000000    -0.789000000     4.960000000
C     0.269000000     0.107000000     4.305000000
H     0.231000000    -0.070000000     3.220000000
C    -0.083000000     1.541000000     4.421000000
C     0.900000000     2.504000000     4.718000000
H     1.949000000     2.220000000     4.726000000
C    -1.383000000     1.964000000     4.228000000
H    -2.167000000     1.222000000     4.102000000
C    -1.782000000     3.296000000     4.385000000
O    -3.095000000     3.614000000     4.403000000
C    -0.820000000     4.273000000     4.702000000
H    -1.117000000     5.317000000     4.769000000
C     0.512000000     3.839000000     4.858000000
O     1.468000000     4.808000000     5.051000000
C     2.643000000     4.793000000     4.341000000
C     2.588000000     4.911000000     2.982000000
H     1.615000000     4.978000000     2.502000000
C     3.923000000     4.635000000     4.892000000
H     4.002000000     4.490000000     5.966000000
C     5.113000000     4.630000000     4.191000000
H     6.025000000     4.299000000     4.683000000
C     5.025000000     4.776000000     2.829000000
H     5.932000000     4.733000000     2.232000000
C     3.793000000     4.911000000     2.225000000
O     3.635000000     5.139000000     0.875000000
C     3.854000000     4.159000000    -0.089000000
C     4.101000000     4.454000000    -1.430000000
H     4.122000000     5.511000000    -1.684000000
C     4.270000000     3.463000000    -2.364000000
O     4.409000000     3.823000000    -3.657000000
C     4.226000000     2.979000000    -4.694000000
C     2.924000000     2.740000000    -5.098000000
H     2.126000000     3.117000000    -4.464000000
C     5.254000000     2.464000000    -5.388000000
H     6.249000000     2.723000000    -5.033000000
C     5.040000000     1.539000000    -6.440000000
H     5.911000000     1.148000000    -6.959000000
C     3.762000000     1.415000000    -6.961000000
H     3.473000000     0.816000000    -7.821000000
C     2.691000000     1.990000000    -6.273000000
O     1.433000000     1.832000000    -6.820000000
C     0.525000000     0.961000000    -6.319000000
C    -0.832000000     1.286000000    -6.431000000
H    -1.102000000     2.202000000    -6.949000000
C    -1.856000000     0.554000000    -5.719000000
O    -3.147000000     1.098000000    -5.633000000
C    -4.263000000     0.435000000    -5.156000000
C    -4.714000000     0.823000000    -3.919000000
H    -4.209000000     1.618000000    -3.377000000
C    -4.856000000    -0.618000000    -5.785000000
H    -4.433000000    -0.972000000    -6.721000000
C    -5.958000000    -1.296000000    -5.217000000
H    -6.334000000    -2.193000000    -5.704000000
C    -6.451000000    -0.776000000    -4.014000000
H    -7.383000000    -1.143000000    -3.592000000
C    -5.831000000     0.280000000    -3.347000000
O    -6.334000000     0.770000000    -2.199000000
C    -6.021000000     0.219000000    -0.953000000
C    -6.662000000     0.846000000     0.103000000
H    -7.444000000     1.600000000     0.049000000
C    -6.269000000     0.511000000     1.402000000
O    -6.805000000     1.268000000     2.474000000
C    -5.991000000     1.510000000     3.636000000
C    -6.010000000     0.705000000     4.720000000
H    -6.755000000    -0.082000000     4.808000000
C    -5.146000000     0.923000000     5.804000000
H    -5.191000000     0.288000000     6.685000000
C    -4.227000000     2.009000000     5.751000000
H    -3.522000000     2.165000000     6.564000000
C    -4.090000000     2.728000000     4.595000000
C    -4.987000000     2.456000000     3.489000000
H    -4.859000000     3.034000000     2.577000000
C    -2.591000000     1.849000000    -0.522000000
H    -3.660000000     1.832000000    -0.722000000
C    -1.882000000     0.690000000    -0.928000000
H    -2.416000000    -0.134000000    -1.395000000
C    -0.533000000     0.627000000    -0.648000000
H     0.108000000    -0.270000000    -0.812000000
C     0.014000000     1.623000000     0.145000000
H     1.042000000     1.516000000     0.484000000
C    -0.686000000     2.768000000     0.570000000
H    -0.276000000     3.530000000     1.228000000
C    -1.993000000     2.898000000     0.172000000
C    -2.736000000     4.223000000     0.567000000
O    -2.189000000     5.057000000     1.201000000
O    -3.874000000     4.418000000     0.162000000
O    -0.381000000     9.483000000    -0.517000000
H     0.118000000    10.280000000    -0.697000000
H    -1.017000000     9.432000000    -1.230000000
O    -4.364000000     6.668000000    -5.398000000
H    -4.992000000     5.983000000    -5.169000000
H    -3.534000000     6.363000000    -5.032000000
O    -3.437000000     6.635000000    -1.360000000
H    -4.063000000     7.325000000    -1.140000000
H    -3.199000000     6.250000000    -0.516000000
O    -2.640000000     6.782000000     3.188000000
H    -2.632000000     6.216000000     2.417000000
H    -2.530000000     6.184000000     3.927000000
O    -7.498000000     7.064000000    -1.239000000
H    -7.880000000     7.904000000    -1.495000000
H    -6.870000000     7.286000000    -0.552000000
O    -2.567000000     5.602000000    -3.733000000
H    -2.166000000     4.784000000    -3.441000000
H    -3.016000000     5.939000000    -2.958000000
O    -6.273000000     4.449000000    -4.993000000
H    -6.046000000     3.901000000    -4.242000000
H    -7.148000000     4.781000000    -4.791000000
O    -5.063000000     3.966000000    -2.018000000
H    -4.912000000     4.827000000    -2.409000000
H    -4.626000000     4.009000000    -1.167000000
O    -0.476000000     4.351000000    -5.762000000
H    -0.288000000     4.147000000    -4.846000000
H    -0.273000000     5.283000000    -5.846000000
O    -5.534000000     8.699000000    -0.017000000
H    -5.214000000     8.370000000     0.823000000
H    -6.353000000     9.145000000     0.197000000
O     1.083000000     9.405000000     2.164000000
H     0.466000000     8.728000000     1.887000000
H     1.057000000    10.055000000     1.462000000
O    -5.990000000     8.284000000     2.939000000
H    -5.659000000     7.426000000     2.673000000
H    -6.786000000     8.404000000     2.421000000
O    -5.541000000     6.087000000     1.329000000
H    -4.908000000     5.481000000     0.942000000
H    -6.393000000     5.692000000     1.146000000
O     0.450000000     6.237000000    -1.788000000
H     1.185000000     6.568000000    -1.271000000
H    -0.327000000     6.570000000    -1.340000000
O    -0.124000000     6.957000000     1.694000000
H     0.596000000     6.736000000     1.104000000
H    -0.861000000     6.435000000     1.379000000
O    -2.404000000     9.565000000     4.136000000
H    -2.538000000     8.649000000     3.891000000
H    -1.835000000     9.526000000     4.905000000
O    -7.782000000     4.239000000    -1.561000000
H    -7.697000000     5.075000000    -1.103000000
H    -6.881000000     3.983000000    -1.761000000
O    -2.578000000     8.614000000     0.884000000
H    -1.737000000     8.741000000     0.445000000
H    -2.371000000     8.070000000     1.644000000
O     0.002000000     3.833000000    -2.651000000
H    -0.178000000     3.466000000    -1.786000000
H     0.153000000     4.764000000    -2.489000000
