215
-1469.25644
C    -0.179000000     3.735000000     3.425000000
H    -0.115000000     4.547000000     2.705000000
C     0.772000000     2.750000000     3.382000000
C     0.650000000     1.751000000     4.321000000
H     1.258000000     0.851000000     4.311000000
C     1.908000000     2.767000000     2.372000000
O     2.044000000     4.038000000     1.743000000
H     1.635000000     1.993000000     1.640000000
O     3.163000000     2.352000000     2.943000000
C     3.884000000     1.500000000     2.146000000
C     3.884000000     0.172000000     2.579000000
H     3.351000000    -0.108000000     3.484000000
C     4.246000000    -0.890000000     1.722000000
O     4.003000000    -2.183000000     2.142000000
C     4.860000000    -0.596000000     0.489000000
C     5.213000000    -1.733000000    -0.407000000
H     5.965000000    -1.202000000    -0.995000000
C     4.086000000    -2.288000000    -1.289000000
C     3.900000000    -1.743000000    -2.525000000
H     4.595000000    -0.983000000    -2.870000000
H     5.727000000    -2.525000000     0.141000000
C     4.920000000     0.786000000     0.098000000
H     5.330000000     1.048000000    -0.874000000
C     4.475000000     1.840000000     0.902000000
C     4.467000000     3.298000000     0.402000000
H     5.250000000     3.401000000    -0.352000000
H     4.682000000     4.010000000     1.201000000
C     3.207000000     3.663000000    -0.382000000
C     3.124000000     3.521000000    -1.750000000
H     4.001000000     3.156000000    -2.279000000
C     2.087000000     4.046000000     0.349000000
C     0.934000000     4.394000000    -0.299000000
H     0.056000000     4.747000000     0.236000000
C     0.835000000     4.178000000    -1.672000000
O    -0.331000000     4.439000000    -2.313000000
C    -1.143000000     3.257000000    -2.683000000
C    -2.581000000     3.348000000    -2.296000000
C    -3.621000000     2.773000000    -3.063000000
H    -3.275000000     2.198000000    -3.919000000
C    -2.902000000     4.028000000    -1.140000000
H    -2.062000000     4.396000000    -0.556000000
O    -0.954000000     2.893000000    -4.087000000
H    -0.805000000     2.374000000    -2.121000000
C     1.903000000     3.685000000    -2.406000000
C     1.818000000     3.431000000    -3.946000000
H     2.838000000     3.401000000    -4.337000000
H     1.289000000     4.246000000    -4.443000000
C     1.257000000     2.043000000    -4.215000000
C     2.068000000     0.968000000    -4.441000000
H     3.149000000     1.038000000    -4.358000000
C    -0.111000000     1.816000000    -4.315000000
C    -0.663000000     0.568000000    -4.570000000
H    -1.747000000     0.486000000    -4.577000000
C     0.159000000    -0.510000000    -4.711000000
O    -0.406000000    -1.758000000    -4.735000000
C    -0.318000000    -2.457000000    -3.431000000
C    -1.647000000    -3.036000000    -2.917000000
C    -2.893000000    -2.501000000    -3.307000000
H    -2.907000000    -1.661000000    -3.997000000
C    -1.708000000    -4.013000000    -1.878000000
H    -0.776000000    -4.241000000    -1.367000000
O     0.793000000    -3.444000000    -3.471000000
H    -0.016000000    -1.705000000    -2.687000000
C     1.571000000    -0.284000000    -4.559000000
C     2.531000000    -1.455000000    -4.713000000
H     3.458000000    -0.999000000    -5.065000000
H     2.059000000    -2.151000000    -5.410000000
C     2.780000000    -2.124000000    -3.345000000
C     1.906000000    -3.135000000    -2.867000000
C     2.160000000    -3.672000000    -1.582000000
H     1.501000000    -4.421000000    -1.149000000
C     3.251000000    -3.285000000    -0.821000000
O     3.388000000    -3.695000000     0.451000000
C     2.897000000    -2.781000000     1.487000000
H     2.179000000    -2.047000000     1.092000000
C     2.150000000    -3.578000000     2.533000000
C     2.293000000    -3.221000000     3.898000000
H     2.945000000    -2.418000000     4.231000000
C     1.336000000    -4.682000000     2.225000000
H     1.103000000    -4.918000000     1.190000000
C     0.658000000    -5.412000000     3.197000000
O     0.114000000    -6.631000000     2.914000000
C     0.796000000    -4.994000000     4.504000000
H     0.255000000    -5.561000000     5.257000000
C     1.506000000    -3.861000000     4.883000000
O     1.547000000    -3.516000000     6.190000000
C     1.441000000    -2.195000000     6.538000000
C     0.367000000    -1.399000000     6.084000000
H    -0.353000000    -1.714000000     5.333000000
C     2.378000000    -1.646000000     7.381000000
H     3.231000000    -2.212000000     7.747000000
C     2.305000000    -0.260000000     7.768000000
H     3.176000000     0.206000000     8.222000000
C     1.306000000     0.542000000     7.378000000
H     1.336000000     1.614000000     7.559000000
C     0.328000000    -0.096000000     6.562000000
O    -0.692000000     0.666000000     6.009000000
C    -0.392000000     1.745000000     5.259000000
C    -1.217000000     2.879000000     5.314000000
H    -2.097000000     2.876000000     5.952000000
C    -1.157000000     3.829000000     4.362000000
O    -1.966000000     4.884000000     4.449000000
C    -2.403000000     5.530000000     3.299000000
C    -3.378000000     4.936000000     2.480000000
H    -3.882000000     4.021000000     2.781000000
C    -1.701000000     6.625000000     2.757000000
H    -1.014000000     7.008000000     3.507000000
C    -2.001000000     7.209000000     1.538000000
H    -1.470000000     8.105000000     1.227000000
C    -3.016000000     6.667000000     0.794000000
H    -3.133000000     7.185000000    -0.155000000
C    -3.692000000     5.514000000     1.205000000
O    -4.621000000     4.986000000     0.332000000
C    -4.252000000     4.261000000    -0.776000000
C    -5.329000000     3.778000000    -1.544000000
H    -6.343000000     4.037000000    -1.251000000
C    -4.991000000     3.035000000    -2.709000000
O    -6.036000000     2.412000000    -3.361000000
C    -5.805000000     1.155000000    -3.872000000
C    -5.637000000    -0.040000000    -3.171000000
H    -5.650000000     0.009000000    -2.085000000
C    -5.770000000     1.060000000    -5.276000000
H    -5.979000000     1.937000000    -5.883000000
C    -5.555000000    -0.171000000    -5.959000000
H    -5.730000000    -0.103000000    -7.030000000
C    -5.335000000    -1.354000000    -5.270000000
H    -5.203000000    -2.351000000    -5.682000000
C    -5.397000000    -1.272000000    -3.848000000
O    -5.316000000    -2.489000000    -3.157000000
C    -4.083000000    -3.046000000    -2.856000000
C    -4.097000000    -4.032000000    -1.906000000
H    -5.054000000    -4.236000000    -1.433000000
C    -2.935000000    -4.548000000    -1.440000000
O    -3.044000000    -5.531000000    -0.528000000
C    -1.949000000    -6.316000000    -0.016000000
C    -1.370000000    -7.178000000    -0.924000000
H    -1.689000000    -7.261000000    -1.960000000
C    -0.222000000    -7.880000000    -0.507000000
H     0.285000000    -8.499000000    -1.242000000
C     0.353000000    -7.746000000     0.773000000
H     1.257000000    -8.178000000     1.196000000
C    -0.333000000    -6.862000000     1.629000000
C    -1.442000000    -6.127000000     1.232000000
H    -1.991000000    -5.523000000     1.950000000
C    -0.474000000    -1.622000000     0.660000000
H    -0.467000000    -2.708000000     0.617000000
C     0.364000000    -0.886000000    -0.144000000
H     1.078000000    -1.394000000    -0.787000000
C     0.325000000     0.487000000    -0.186000000
H     0.887000000     1.149000000    -0.975000000
C    -0.459000000     1.162000000     0.720000000
H    -0.430000000     2.238000000     0.876000000
C    -1.399000000     0.486000000     1.521000000
H    -1.978000000     1.154000000     2.152000000
C    -1.430000000    -0.944000000     1.486000000
C    -2.314000000    -1.636000000     2.500000000
O    -3.131000000    -1.021000000     3.171000000
O    -2.218000000    -2.838000000     2.562000000
O    -5.737000000    -1.784000000     2.982000000
H    -4.833000000    -1.473000000     3.022000000
H    -5.677000000    -2.638000000     2.552000000
O    -8.769000000    -3.605000000     3.836000000
H    -8.885000000    -3.083000000     4.630000000
H    -7.823000000    -3.741000000     3.775000000
O    -4.138000000     3.934000000     7.048000000
H    -4.835000000     3.582000000     7.602000000
H    -4.251000000     3.489000000     6.209000000
O    -8.563000000    -0.047000000     3.054000000
H    -7.903000000    -0.143000000     2.367000000
H    -9.177000000    -0.765000000     2.899000000
O    -3.550000000    -0.069000000     5.804000000
H    -3.161000000    -0.544000000     5.070000000
H    -3.216000000     0.824000000     5.716000000
O    -6.437000000     0.181000000     5.223000000
H    -5.873000000    -0.503000000     4.861000000
H    -7.284000000     0.042000000     4.801000000
O    -2.571000000    -1.479000000     8.216000000
H    -1.861000000    -0.885000000     8.459000000
H    -3.027000000    -1.030000000     7.505000000
O    -2.861000000    -7.128000000     4.723000000
H    -2.775000000    -6.177000000     4.793000000
H    -2.892000000    -7.433000000     5.629000000
O    -2.772000000    -4.506000000     4.810000000
H    -2.621000000    -3.936000000     4.056000000
H    -2.987000000    -3.906000000     5.524000000
O    -5.191000000    -6.874000000     2.886000000
H    -5.625000000    -6.184000000     3.387000000
H    -4.415000000    -7.093000000     3.402000000
O    -7.370000000    -3.358000000     0.198000000
H    -6.741000000    -3.904000000     0.669000000
H    -6.841000000    -2.662000000    -0.191000000
O    -5.480000000     0.004000000     7.877000000
H    -4.940000000    -0.070000000     7.089000000
H    -5.667000000    -0.901000000     8.125000000
O    -6.171000000    -4.646000000     4.294000000
H    -5.616000000    -4.339000000     3.577000000
H    -5.862000000    -4.161000000     5.060000000
O    -2.039000000    -4.440000000     7.977000000
H    -2.693000000    -3.797000000     8.252000000
H    -1.305000000    -4.307000000     8.576000000
O    -4.538000000    -3.953000000     1.914000000
H    -4.352000000    -4.843000000     1.616000000
H    -3.678000000    -3.583000000     2.114000000
O    -5.198000000    -3.477000000     6.398000000
H    -5.359000000    -2.755000000     7.005000000
H    -4.910000000    -4.200000000     6.955000000
O    -4.921000000     2.329000000     4.842000000
H    -4.381000000     2.284000000     4.053000000
H    -5.422000000     1.513000000     4.836000000
O    -6.970000000     1.955000000     0.789000000
H    -7.106000000     2.719000000     1.349000000
H    -7.852000000     1.629000000     0.610000000
O    -4.301000000     1.458000000     2.124000000
H    -3.641000000     0.784000000     1.961000000
H    -4.848000000     1.452000000     1.339000000
