215
-1459.70133
C     0.384000000     4.213000000     3.734000000
H     0.753000000     5.155000000     3.337000000
C     1.146000000     3.073000000     3.426000000
C     0.874000000     1.889000000     4.053000000
H     1.432000000     0.970000000     3.892000000
C     2.022000000     3.035000000     2.211000000
O     2.178000000     4.315000000     1.503000000
H     1.562000000     2.312000000     1.522000000
O     3.342000000     2.556000000     2.583000000
C     3.919000000     1.632000000     1.786000000
C     3.867000000     0.290000000     2.171000000
H     3.526000000     0.106000000     3.187000000
C     4.308000000    -0.733000000     1.345000000
O     4.116000000    -2.017000000     1.788000000
C     4.894000000    -0.415000000     0.116000000
C     5.382000000    -1.450000000    -0.849000000
H     6.163000000    -1.050000000    -1.499000000
C     4.160000000    -1.981000000    -1.572000000
C     3.717000000    -1.396000000    -2.762000000
H     4.294000000    -0.584000000    -3.198000000
H     5.865000000    -2.257000000    -0.294000000
C     5.029000000     0.929000000    -0.239000000
H     5.273000000     1.121000000    -1.281000000
C     4.519000000     1.907000000     0.526000000
C     4.549000000     3.271000000    -0.065000000
H     5.377000000     3.292000000    -0.777000000
H     4.794000000     4.069000000     0.638000000
C     3.254000000     3.698000000    -0.638000000
C     3.103000000     3.597000000    -2.022000000
H     3.952000000     3.293000000    -2.628000000
C     2.228000000     4.234000000     0.154000000
C     1.025000000     4.570000000    -0.447000000
H     0.209000000     5.025000000     0.110000000
C     0.845000000     4.343000000    -1.791000000
O    -0.508000000     4.467000000    -2.202000000
C    -1.151000000     3.205000000    -2.350000000
C    -2.502000000     3.303000000    -1.737000000
C    -3.536000000     2.466000000    -2.150000000
H    -3.369000000     1.930000000    -3.080000000
C    -2.746000000     4.244000000    -0.654000000
H    -2.046000000     4.993000000    -0.291000000
O    -1.220000000     2.874000000    -3.787000000
H    -0.523000000     2.461000000    -1.838000000
C     1.838000000     3.762000000    -2.612000000
C     1.586000000     3.511000000    -4.060000000
H     2.547000000     3.619000000    -4.567000000
H     0.894000000     4.308000000    -4.341000000
C     1.052000000     2.101000000    -4.262000000
C     1.895000000     0.998000000    -4.427000000
H     2.952000000     1.245000000    -4.482000000
C    -0.345000000     1.895000000    -4.177000000
C    -0.885000000     0.654000000    -4.446000000
H    -1.957000000     0.515000000    -4.336000000
C    -0.004000000    -0.405000000    -4.715000000
O    -0.500000000    -1.697000000    -4.682000000
C    -0.406000000    -2.430000000    -3.454000000
C    -1.743000000    -3.171000000    -3.069000000
C    -2.950000000    -2.709000000    -3.589000000
H    -3.023000000    -1.870000000    -4.276000000
C    -1.707000000    -4.243000000    -2.202000000
H    -0.737000000    -4.539000000    -1.810000000
O     0.715000000    -3.356000000    -3.460000000
H    -0.156000000    -1.656000000    -2.712000000
C     1.395000000    -0.270000000    -4.690000000
C     2.337000000    -1.474000000    -4.824000000
H     3.275000000    -1.313000000    -5.360000000
H     1.786000000    -2.178000000    -5.451000000
C     2.658000000    -1.928000000    -3.443000000
C     1.897000000    -2.997000000    -2.882000000
C     2.235000000    -3.497000000    -1.634000000
H     1.485000000    -4.111000000    -1.143000000
C     3.431000000    -3.080000000    -1.042000000
O     3.747000000    -3.597000000     0.147000000
C     3.095000000    -2.837000000     1.155000000
H     2.354000000    -2.200000000     0.650000000
C     2.442000000    -3.693000000     2.179000000
C     2.342000000    -3.294000000     3.544000000
H     2.747000000    -2.370000000     3.948000000
C     1.831000000    -4.918000000     1.854000000
H     1.755000000    -5.228000000     0.815000000
C     1.157000000    -5.674000000     2.828000000
O     0.572000000    -6.876000000     2.486000000
C     1.155000000    -5.271000000     4.167000000
H     0.667000000    -5.803000000     4.980000000
C     1.676000000    -4.013000000     4.476000000
O     1.543000000    -3.575000000     5.725000000
C     1.343000000    -2.332000000     6.209000000
C     0.403000000    -1.511000000     5.558000000
H    -0.014000000    -1.658000000     4.565000000
C     1.820000000    -1.975000000     7.432000000
H     2.514000000    -2.617000000     7.968000000
C     1.379000000    -0.744000000     7.994000000
H     1.756000000    -0.503000000     8.984000000
C     0.382000000     0.052000000     7.382000000
H    -0.054000000     0.965000000     7.778000000
C     0.009000000    -0.307000000     6.148000000
O    -0.648000000     0.613000000     5.372000000
C    -0.205000000     1.820000000     4.899000000
C    -1.055000000     2.842000000     5.125000000
H    -1.910000000     2.665000000     5.773000000
C    -0.707000000     4.085000000     4.614000000
O    -1.607000000     5.063000000     4.806000000
C    -2.049000000     5.785000000     3.640000000
C    -2.847000000     5.083000000     2.734000000
H    -2.985000000     4.005000000     2.732000000
C    -1.806000000     7.130000000     3.508000000
H    -1.270000000     7.712000000     4.253000000
C    -2.374000000     7.812000000     2.401000000
H    -2.180000000     8.878000000     2.317000000
C    -3.145000000     7.104000000     1.510000000
H    -3.463000000     7.541000000     0.566000000
C    -3.422000000     5.757000000     1.698000000
O    -4.354000000     5.136000000     0.860000000
C    -4.055000000     4.281000000    -0.137000000
C    -5.045000000     3.410000000    -0.569000000
H    -6.019000000     3.537000000    -0.105000000
C    -4.795000000     2.520000000    -1.584000000
O    -5.873000000     1.747000000    -2.118000000
C    -5.789000000     0.769000000    -3.098000000
C    -5.689000000    -0.548000000    -2.671000000
H    -5.495000000    -0.766000000    -1.623000000
C    -5.751000000     1.180000000    -4.454000000
H    -5.847000000     2.240000000    -4.675000000
C    -5.710000000     0.139000000    -5.406000000
H    -5.853000000     0.425000000    -6.445000000
C    -5.570000000    -1.173000000    -5.016000000
H    -5.480000000    -2.045000000    -5.658000000
C    -5.491000000    -1.418000000    -3.680000000
O    -5.386000000    -2.752000000    -3.344000000
C    -4.162000000    -3.145000000    -3.001000000
C    -4.124000000    -4.231000000    -2.122000000
H    -5.091000000    -4.511000000    -1.712000000
C    -2.886000000    -4.777000000    -1.719000000
O    -2.914000000    -5.721000000    -0.691000000
C    -1.781000000    -6.366000000    -0.281000000
C    -1.511000000    -7.517000000    -0.970000000
H    -2.057000000    -7.742000000    -1.883000000
C    -0.604000000    -8.501000000    -0.501000000
H    -0.528000000    -9.420000000    -1.077000000
C     0.114000000    -8.210000000     0.626000000
H     0.989000000    -8.830000000     0.806000000
C    -0.090000000    -7.012000000     1.322000000
C    -0.979000000    -6.069000000     0.823000000
H    -1.177000000    -5.166000000     1.395000000
C    -0.808000000    -1.323000000     0.764000000
H    -0.904000000    -2.405000000     0.808000000
C     0.163000000    -0.653000000     0.060000000
H     0.824000000    -1.218000000    -0.592000000
C     0.232000000     0.741000000    -0.014000000
H     0.950000000     1.236000000    -0.677000000
C    -0.720000000     1.456000000     0.710000000
H    -0.710000000     2.533000000     0.567000000
C    -1.730000000     0.752000000     1.460000000
H    -2.507000000     1.279000000     2.007000000
C    -1.787000000    -0.669000000     1.477000000
C    -2.928000000    -1.367000000     2.202000000
O    -3.834000000    -0.716000000     2.658000000
O    -2.988000000    -2.582000000     2.296000000
O    -5.987000000    -0.710000000     0.861000000
H    -5.164000000    -0.691000000     1.350000000
H    -6.361000000     0.161000000     0.990000000
O    -9.437000000    -0.217000000     4.754000000
H   -10.159000000    -0.376000000     4.146000000
H    -8.649000000    -0.420000000     4.249000000
O    -4.253000000     3.933000000     5.688000000
H    -4.653000000     3.233000000     6.204000000
H    -3.919000000     3.494000000     4.906000000
O    -7.846000000    -2.256000000    -0.392000000
H    -8.295000000    -1.585000000    -0.906000000
H    -7.111000000    -1.796000000     0.012000000
O    -4.491000000     1.469000000     3.837000000
H    -4.209000000     0.663000000     3.405000000
H    -5.267000000     1.745000000     3.349000000
O    -5.470000000    -0.173000000     5.685000000
H    -6.272000000     0.240000000     6.004000000
H    -5.037000000     0.509000000     5.171000000
O    -6.874000000    -4.221000000     4.143000000
H    -6.145000000    -3.613000000     4.265000000
H    -7.292000000    -3.934000000     3.331000000
O    -3.781000000    -6.553000000     5.683000000
H    -3.699000000    -5.827000000     5.065000000
H    -4.409000000    -6.242000000     6.336000000
O    -3.592000000    -5.021000000     3.264000000
H    -2.882000000    -4.736000000     2.688000000
H    -3.912000000    -4.213000000     3.667000000
O    -5.114000000    -7.208000000     2.931000000
H    -4.766000000    -6.350000000     2.687000000
H    -5.503000000    -7.072000000     3.795000000
O    -7.341000000    -1.276000000     3.167000000
H    -6.458000000    -1.416000000     2.825000000
H    -7.861000000    -1.041000000     2.399000000
O    -7.589000000    -4.265000000     1.504000000
H    -6.698000000    -4.553000000     1.304000000
H    -7.716000000    -3.485000000     0.963000000
O    -2.920000000    -0.827000000     6.697000000
H    -2.804000000     0.100000000     6.491000000
H    -3.667000000    -1.099000000     6.163000000
O    -5.028000000    -3.550000000     0.763000000
H    -4.093000000    -3.692000000     0.910000000
H    -5.100000000    -2.617000000     0.560000000
O    -4.683000000    -2.502000000     4.605000000
H    -4.066000000    -2.108000000     3.989000000
H    -5.104000000    -1.756000000     5.032000000
O    -1.565000000    -1.724000000     8.762000000
H    -2.024000000    -1.317000000     8.028000000
H    -0.645000000    -1.724000000     8.499000000
O    -7.656000000     2.431000000     3.732000000
H    -7.556000000     3.381000000     3.664000000
H    -8.330000000     2.309000000     4.401000000
O    -7.584000000     1.292000000     1.255000000
H    -8.359000000     1.633000000     0.809000000
H    -7.702000000     1.548000000     2.169000000
O    -5.907000000    -1.926000000     8.492000000
H    -6.660000000    -2.312000000     8.046000000
H    -5.633000000    -1.207000000     7.922000000
