215
-1450.22653
C    -0.371000000     3.587000000     4.378000000
H    -0.149000000     4.555000000     3.935000000
C     0.419000000     2.473000000     4.091000000
C     0.044000000     1.233000000     4.566000000
H     0.674000000     0.374000000     4.353000000
C     1.669000000     2.526000000     3.215000000
O     1.998000000     3.849000000     2.945000000
H     1.491000000     2.097000000     2.218000000
O     2.890000000     1.912000000     3.721000000
C     3.628000000     1.129000000     2.876000000
C     3.565000000    -0.261000000     2.999000000
H     2.939000000    -0.663000000     3.792000000
C     4.011000000    -1.074000000     1.962000000
O     3.683000000    -2.390000000     2.104000000
C     4.713000000    -0.537000000     0.940000000
C     5.390000000    -1.419000000    -0.101000000
H     6.279000000    -0.870000000    -0.417000000
C     4.431000000    -1.702000000    -1.302000000
C     4.332000000    -0.876000000    -2.423000000
H     4.964000000    -0.005000000    -2.578000000
H     5.825000000    -2.341000000     0.291000000
C     4.932000000     0.836000000     0.862000000
H     5.507000000     1.281000000     0.054000000
C     4.425000000     1.696000000     1.869000000
C     4.545000000     3.227000000     1.684000000
H     5.401000000     3.372000000     1.021000000
H     4.668000000     3.703000000     2.659000000
C     3.309000000     3.705000000     0.912000000
C     3.303000000     3.704000000    -0.479000000
H     4.179000000     3.333000000    -1.005000000
C     2.187000000     4.067000000     1.564000000
C     1.009000000     4.462000000     0.887000000
H     0.131000000     4.627000000     1.507000000
C     0.998000000     4.534000000    -0.477000000
O    -0.262000000     4.753000000    -1.083000000
C    -0.873000000     3.562000000    -1.571000000
C    -2.396000000     3.416000000    -1.264000000
C    -3.118000000     2.329000000    -1.775000000
H    -2.720000000     1.677000000    -2.548000000
C    -3.010000000     4.279000000    -0.317000000
H    -2.542000000     5.135000000     0.163000000
O    -0.663000000     3.431000000    -2.977000000
H    -0.346000000     2.713000000    -1.112000000
C     2.142000000     4.124000000    -1.187000000
C     2.178000000     4.202000000    -2.695000000
H     3.230000000     4.359000000    -2.942000000
H     1.722000000     5.100000000    -3.117000000
C     1.662000000     2.985000000    -3.387000000
C     2.629000000     2.070000000    -3.925000000
H     3.684000000     2.319000000    -3.837000000
C     0.318000000     2.636000000    -3.471000000
C    -0.047000000     1.498000000    -4.149000000
H    -1.120000000     1.331000000    -4.179000000
C     0.868000000     0.510000000    -4.513000000
O     0.334000000    -0.655000000    -4.985000000
C     0.265000000    -1.710000000    -3.993000000
C    -1.019000000    -2.553000000    -4.120000000
C    -2.203000000    -1.973000000    -4.522000000
H    -2.276000000    -0.961000000    -4.912000000
C    -0.949000000    -3.898000000    -3.761000000
H    -0.029000000    -4.304000000    -3.349000000
O     1.486000000    -2.470000000    -4.054000000
H     0.179000000    -1.156000000    -3.046000000
C     2.225000000     0.815000000    -4.424000000
C     3.254000000    -0.230000000    -4.681000000
H     4.255000000     0.100000000    -4.967000000
H     2.933000000    -0.739000000    -5.593000000
C     3.423000000    -1.145000000    -3.431000000
C     2.529000000    -2.137000000    -3.210000000
C     2.599000000    -2.910000000    -2.074000000
H     1.779000000    -3.617000000    -1.973000000
C     3.628000000    -2.737000000    -1.200000000
O     3.608000000    -3.482000000    -0.002000000
C     2.808000000    -2.919000000     1.074000000
H     2.151000000    -2.083000000     0.793000000
C     1.910000000    -3.975000000     1.680000000
C     1.335000000    -3.764000000     2.960000000
H     1.627000000    -2.866000000     3.497000000
C     1.365000000    -5.069000000     0.938000000
H     1.774000000    -5.331000000    -0.034000000
C     0.405000000    -5.963000000     1.483000000
O     0.055000000    -7.114000000     0.813000000
C     0.033000000    -5.762000000     2.810000000
H    -0.684000000    -6.418000000     3.297000000
C     0.505000000    -4.638000000     3.536000000
O    -0.020000000    -4.444000000     4.819000000
C    -0.121000000    -3.386000000     5.616000000
C    -0.831000000    -2.243000000     5.280000000
H    -1.454000000    -2.244000000     4.389000000
C     0.634000000    -3.437000000     6.770000000
H     1.178000000    -4.336000000     7.047000000
C     0.640000000    -2.311000000     7.582000000
H     1.318000000    -2.353000000     8.430000000
C    -0.122000000    -1.159000000     7.243000000
H     0.013000000    -0.247000000     7.819000000
C    -0.869000000    -1.175000000     6.060000000
O    -1.613000000    -0.091000000     5.842000000
C    -1.123000000     1.101000000     5.349000000
C    -1.911000000     2.217000000     5.580000000
H    -2.914000000     2.079000000     5.975000000
C    -1.553000000     3.486000000     5.086000000
O    -2.429000000     4.578000000     5.283000000
C    -3.080000000     5.258000000     4.239000000
C    -3.817000000     4.626000000     3.204000000
H    -3.887000000     3.566000000     2.974000000
C    -2.876000000     6.630000000     4.252000000
H    -2.271000000     7.168000000     4.977000000
C    -3.470000000     7.355000000     3.285000000
H    -3.288000000     8.427000000     3.273000000
C    -4.176000000     6.752000000     2.293000000
H    -4.506000000     7.376000000     1.465000000
C    -4.439000000     5.402000000     2.261000000
O    -4.930000000     4.938000000     0.992000000
C    -4.295000000     3.991000000     0.168000000
C    -5.058000000     2.905000000    -0.293000000
H    -6.054000000     2.755000000     0.116000000
C    -4.473000000     2.110000000    -1.311000000
O    -5.207000000     1.043000000    -1.788000000
C    -5.172000000     0.717000000    -3.116000000
C    -4.897000000    -0.586000000    -3.492000000
H    -4.729000000    -1.403000000    -2.795000000
C    -5.575000000     1.624000000    -4.073000000
H    -6.017000000     2.538000000    -3.685000000
C    -5.613000000     1.195000000    -5.414000000
H    -6.105000000     1.908000000    -6.071000000
C    -5.259000000    -0.100000000    -5.783000000
H    -5.244000000    -0.398000000    -6.829000000
C    -4.836000000    -1.001000000    -4.813000000
O    -4.425000000    -2.250000000    -5.125000000
C    -3.317000000    -2.802000000    -4.514000000
C    -3.372000000    -4.089000000    -4.063000000
H    -4.263000000    -4.711000000    -4.026000000
C    -2.158000000    -4.664000000    -3.690000000
O    -2.115000000    -5.944000000    -3.210000000
C    -1.091000000    -6.589000000    -2.604000000
C     0.013000000    -6.974000000    -3.408000000
H     0.133000000    -6.711000000    -4.456000000
C     1.165000000    -7.513000000    -2.701000000
H     2.048000000    -7.867000000    -3.228000000
C     1.121000000    -7.582000000    -1.292000000
H     1.916000000    -8.014000000    -0.689000000
C     0.052000000    -7.091000000    -0.578000000
C    -1.075000000    -6.676000000    -1.238000000
H    -1.900000000    -6.212000000    -0.703000000
C    -1.042000000    -2.158000000    -0.182000000
H    -1.110000000    -3.129000000    -0.668000000
C     0.022000000    -1.293000000    -0.416000000
H     0.782000000    -1.519000000    -1.160000000
C     0.163000000    -0.129000000     0.262000000
H     0.878000000     0.656000000     0.042000000
C    -0.728000000     0.225000000     1.200000000
H    -0.744000000     1.202000000     1.676000000
C    -1.721000000    -0.685000000     1.548000000
H    -2.357000000    -0.415000000     2.387000000
C    -1.894000000    -1.951000000     0.912000000
C    -2.941000000    -2.971000000     1.348000000
O    -3.850000000    -2.708000000     2.151000000
O    -3.101000000    -4.009000000     0.740000000
O    -5.437000000    -1.734000000     0.238000000
H    -5.096000000    -2.295000000     0.934000000
H    -4.917000000    -0.933000000     0.299000000
O   -10.119000000    -3.832000000     0.350000000
H    -9.191000000    -4.026000000     0.483000000
H   -10.130000000    -3.193000000    -0.363000000
O    -7.951000000    -1.559000000     2.620000000
H    -8.722000000    -2.025000000     2.297000000
H    -7.315000000    -2.249000000     2.807000000
O    -4.725000000    -0.274000000     3.346000000
H    -4.215000000    -0.997000000     3.712000000
H    -5.424000000    -0.700000000     2.850000000
O    -7.748000000     0.901000000     1.567000000
H    -8.013000000     0.776000000     0.656000000
H    -7.702000000     0.016000000     1.928000000
O    -4.818000000    -5.785000000     1.873000000
H    -4.394000000    -5.778000000     2.731000000
H    -4.251000000    -5.247000000     1.321000000
O    -7.337000000    -3.820000000     0.454000000
H    -6.804000000    -3.042000000     0.620000000
H    -6.701000000    -4.517000000     0.295000000
O    -6.201000000     2.044000000     3.955000000
H    -6.788000000     2.106000000     3.201000000
H    -5.644000000     1.289000000     3.764000000
O    -7.746000000    -0.587000000    -0.784000000
H    -7.198000000     0.110000000    -1.146000000
H    -7.157000000    -1.085000000    -0.218000000
O    -3.917000000    -4.513000000     4.181000000
H    -3.668000000    -4.115000000     3.346000000
H    -4.057000000    -3.770000000     4.768000000
O    -2.488000000    -3.621000000     7.956000000
H    -2.111000000    -3.529000000     8.831000000
H    -1.741000000    -3.824000000     7.393000000
O    -5.042000000    -4.678000000    -1.154000000
H    -4.270000000    -4.371000000    -0.678000000
H    -5.257000000    -3.961000000    -1.750000000
O    -6.092000000    -3.325000000     3.094000000
H    -6.008000000    -4.264000000     2.931000000
H    -5.245000000    -2.961000000     2.838000000
O    -6.297000000    -6.319000000     4.829000000
H    -7.029000000    -5.796000000     5.156000000
H    -5.568000000    -5.701000000     4.773000000
O    -4.292000000    -2.257000000     6.215000000
H    -5.042000000    -1.960000000     6.732000000
H    -3.635000000    -2.502000000     6.866000000
O    -4.655000000    -7.432000000    -0.468000000
H    -4.578000000    -6.900000000     0.323000000
H    -4.769000000    -6.796000000    -1.175000000
O    -6.980000000    -7.392000000     1.852000000
H    -7.566000000    -6.890000000     2.419000000
H    -6.129000000    -6.964000000     1.946000000
O    -3.442000000    -6.679000000     5.676000000
H    -3.895000000    -6.391000000     6.469000000
H    -3.399000000    -5.895000000     5.128000000
O    -7.316000000    -3.880000000    -2.783000000
H    -7.768000000    -3.265000000    -3.360000000
H    -7.715000000    -3.740000000    -1.924000000
