215
-1462.48691
C     0.138000000     3.166000000     4.319000000
H     0.318000000     4.230000000     4.190000000
C     1.094000000     2.262000000     3.884000000
C     0.933000000     0.921000000     4.164000000
H     1.663000000     0.187000000     3.830000000
C     2.101000000     2.778000000     2.840000000
O     1.965000000     4.126000000     2.314000000
H     1.641000000     2.164000000     2.052000000
O     3.514000000     2.344000000     2.975000000
C     4.035000000     1.733000000     1.856000000
C     4.117000000     0.345000000     2.016000000
H     3.817000000    -0.128000000     2.947000000
C     4.635000000    -0.442000000     0.912000000
O     4.744000000    -1.801000000     1.066000000
C     4.894000000     0.187000000    -0.335000000
C     5.365000000    -0.612000000    -1.552000000
H     6.117000000    -0.023000000    -2.082000000
C     4.143000000    -1.134000000    -2.294000000
C     3.656000000    -0.396000000    -3.364000000
H     4.132000000     0.546000000    -3.624000000
H     5.896000000    -1.485000000    -1.168000000
C     4.827000000     1.557000000    -0.443000000
H     5.109000000     2.060000000    -1.364000000
C     4.333000000     2.326000000     0.605000000
C     4.196000000     3.858000000     0.428000000
H     5.007000000     4.163000000    -0.237000000
H     4.482000000     4.324000000     1.373000000
C     2.752000000     4.190000000    -0.074000000
C     2.464000000     4.288000000    -1.434000000
H     3.180000000     4.082000000    -2.227000000
C     1.804000000     4.326000000     0.928000000
C     0.481000000     4.610000000     0.561000000
H    -0.293000000     4.718000000     1.317000000
C     0.137000000     4.620000000    -0.793000000
O    -1.163000000     4.697000000    -1.061000000
C    -1.770000000     3.441000000    -1.492000000
C    -3.142000000     3.371000000    -0.883000000
C    -4.127000000     2.527000000    -1.425000000
H    -3.949000000     1.972000000    -2.343000000
C    -3.464000000     3.999000000     0.379000000
H    -2.784000000     4.689000000     0.874000000
O    -1.892000000     3.388000000    -2.940000000
H    -1.189000000     2.538000000    -1.254000000
C     1.083000000     4.519000000    -1.785000000
C     0.704000000     4.530000000    -3.273000000
H     1.455000000     5.061000000    -3.861000000
H    -0.167000000     5.178000000    -3.392000000
C     0.382000000     3.192000000    -3.815000000
C     1.340000000     2.410000000    -4.473000000
H     2.379000000     2.715000000    -4.570000000
C    -0.927000000     2.724000000    -3.640000000
C    -1.259000000     1.448000000    -4.017000000
H    -2.221000000     0.993000000    -3.798000000
C    -0.321000000     0.676000000    -4.608000000
O    -0.745000000    -0.578000000    -4.823000000
C    -0.452000000    -1.598000000    -3.816000000
C    -1.575000000    -2.608000000    -3.511000000
C    -2.907000000    -2.268000000    -3.770000000
H    -3.135000000    -1.395000000    -4.376000000
C    -1.308000000    -3.779000000    -2.832000000
H    -0.291000000    -3.891000000    -2.466000000
O     0.703000000    -2.382000000    -4.297000000
H    -0.160000000    -1.134000000    -2.862000000
C     0.967000000     1.150000000    -4.840000000
C     2.033000000     0.113000000    -5.231000000
H     2.849000000     0.633000000    -5.736000000
H     1.569000000    -0.524000000    -5.987000000
C     2.596000000    -0.812000000    -4.128000000
C     1.935000000    -2.024000000    -3.813000000
C     2.347000000    -2.758000000    -2.682000000
H     1.857000000    -3.696000000    -2.435000000
C     3.443000000    -2.328000000    -1.941000000
O     3.927000000    -3.000000000    -0.808000000
C     3.653000000    -2.532000000     0.514000000
H     2.733000000    -1.935000000     0.435000000
C     3.280000000    -3.733000000     1.419000000
C     3.316000000    -3.674000000     2.835000000
H     3.499000000    -2.720000000     3.322000000
C     2.710000000    -4.904000000     0.848000000
H     2.506000000    -4.845000000    -0.218000000
C     2.206000000    -5.969000000     1.570000000
O     1.551000000    -7.028000000     1.043000000
C     2.296000000    -5.910000000     2.933000000
H     2.042000000    -6.841000000     3.433000000
C     2.717000000    -4.685000000     3.605000000
O     2.587000000    -4.638000000     4.992000000
C     2.343000000    -3.441000000     5.664000000
C     1.287000000    -2.666000000     5.166000000
H     0.640000000    -3.063000000     4.388000000
C     2.952000000    -3.085000000     6.858000000
H     3.649000000    -3.802000000     7.285000000
C     2.555000000    -1.887000000     7.466000000
H     3.147000000    -1.624000000     8.338000000
C     1.595000000    -1.055000000     6.964000000
H     1.346000000    -0.205000000     7.594000000
C     0.858000000    -1.493000000     5.843000000
O    -0.241000000    -0.842000000     5.320000000
C    -0.138000000     0.479000000     4.922000000
C    -1.023000000     1.348000000     5.379000000
H    -1.878000000     1.064000000     5.988000000
C    -0.882000000     2.728000000     5.137000000
O    -1.841000000     3.563000000     5.616000000
C    -2.615000000     4.356000000     4.872000000
C    -3.386000000     3.911000000     3.770000000
H    -3.382000000     2.849000000     3.539000000
C    -2.852000000     5.646000000     5.351000000
H    -2.387000000     5.889000000     6.302000000
C    -3.780000000     6.500000000     4.705000000
H    -4.037000000     7.478000000     5.102000000
C    -4.508000000     6.076000000     3.623000000
H    -5.383000000     6.661000000     3.351000000
C    -4.240000000     4.808000000     3.134000000
O    -5.121000000     4.345000000     2.209000000
C    -4.743000000     3.732000000     0.976000000
C    -5.735000000     2.937000000     0.289000000
H    -6.615000000     2.633000000     0.851000000
C    -5.403000000     2.320000000    -0.904000000
O    -6.286000000     1.376000000    -1.374000000
C    -6.185000000     0.530000000    -2.512000000
C    -5.762000000    -0.760000000    -2.476000000
H    -5.514000000    -1.347000000    -1.596000000
C    -6.632000000     1.079000000    -3.708000000
H    -7.083000000     2.068000000    -3.713000000
C    -6.527000000     0.347000000    -4.883000000
H    -6.922000000     0.773000000    -5.802000000
C    -6.020000000    -0.926000000    -4.842000000
H    -5.953000000    -1.511000000    -5.756000000
C    -5.696000000    -1.490000000    -3.670000000
O    -5.259000000    -2.801000000    -3.639000000
C    -3.948000000    -3.120000000    -3.423000000
C    -3.625000000    -4.324000000    -2.902000000
H    -4.361000000    -5.061000000    -2.592000000
C    -2.313000000    -4.635000000    -2.521000000
O    -2.102000000    -5.739000000    -1.798000000
C    -0.878000000    -6.379000000    -1.629000000
C    -0.209000000    -6.870000000    -2.718000000
H    -0.692000000    -6.852000000    -3.692000000
C     1.025000000    -7.520000000    -2.549000000
H     1.648000000    -7.848000000    -3.377000000
C     1.649000000    -7.495000000    -1.274000000
H     2.686000000    -7.802000000    -1.165000000
C     0.925000000    -6.995000000    -0.176000000
C    -0.371000000    -6.537000000    -0.357000000
H    -0.899000000    -6.181000000     0.524000000
C    -0.544000000    -1.615000000     0.899000000
H    -0.381000000    -2.687000000     0.974000000
C     0.311000000    -0.812000000     0.057000000
H     1.063000000    -1.267000000    -0.582000000
C     0.256000000     0.609000000     0.100000000
H     0.946000000     1.325000000    -0.424000000
C    -0.755000000     1.181000000     0.848000000
H    -0.889000000     2.259000000     0.804000000
C    -1.645000000     0.404000000     1.600000000
H    -2.398000000     0.889000000     2.216000000
C    -1.468000000    -1.004000000     1.735000000
C    -2.302000000    -1.837000000     2.712000000
O    -3.307000000    -1.299000000     3.205000000
O    -2.041000000    -3.051000000     2.808000000
O    -7.504000000     0.070000000     1.318000000
H    -6.684000000    -0.421000000     1.258000000
H    -7.525000000     0.392000000     2.219000000
O    -1.140000000    -6.151000000     5.585000000
H    -0.899000000    -5.400000000     6.126000000
H    -2.061000000    -6.311000000     5.793000000
O    -5.248000000     0.573000000     3.311000000
H    -5.657000000     0.745000000     2.463000000
H    -4.530000000    -0.028000000     3.113000000
O    -3.952000000    -6.857000000     2.418000000
H    -3.086000000    -6.624000000     2.755000000
H    -4.139000000    -7.711000000     2.808000000
O    -5.463000000    -4.460000000     3.147000000
H    -4.630000000    -4.695000000     2.738000000
H    -5.779000000    -3.715000000     2.636000000
O    -6.684000000     2.517000000     4.808000000
H    -6.349000000     2.786000000     5.664000000
H    -6.076000000     1.839000000     4.515000000
O    -1.341000000    -5.503000000     2.791000000
H    -1.472000000    -4.557000000     2.729000000
H    -1.270000000    -5.673000000     3.731000000
O    -2.394000000    -2.486000000     7.743000000
H    -2.802000000    -1.857000000     7.148000000
H    -1.880000000    -1.948000000     8.345000000
O    -3.495000000    -3.971000000     0.583000000
H    -3.040000000    -4.441000000    -0.117000000
H    -2.823000000    -3.823000000     1.248000000
O    -0.292000000    -4.001000000     7.736000000
H     0.205000000    -3.236000000     8.026000000
H    -1.173000000    -3.664000000     7.569000000
O    -5.270000000    -1.853000000     1.428000000
H    -4.863000000    -2.427000000     0.779000000
H    -4.592000000    -1.721000000     2.091000000
O    -5.736000000    -3.786000000     5.936000000
H    -4.801000000    -3.634000000     6.070000000
H    -5.843000000    -3.801000000     4.985000000
O    -8.501000000    -2.742000000     1.690000000
H    -9.053000000    -1.995000000     1.923000000
H    -7.613000000    -2.385000000     1.670000000
O    -6.915000000    -6.730000000     2.931000000
H    -6.250000000    -6.062000000     2.765000000
H    -6.764000000    -6.998000000     3.837000000
O    -7.226000000    -1.426000000     4.145000000
H    -6.555000000    -1.276000000     4.811000000
H    -7.636000000    -0.570000000     4.020000000
O    -2.968000000    -3.804000000     5.189000000
H    -2.516000000    -3.630000000     4.364000000
H    -2.609000000    -3.160000000     5.799000000
O    -0.817000000    -8.349000000     2.443000000
H    -0.983000000    -7.415000000     2.314000000
H     0.038000000    -8.498000000     2.039000000
O    -3.794000000    -6.580000000     5.913000000
H    -4.618000000    -7.019000000     5.705000000
H    -4.055000000    -5.707000000     6.207000000
O    -3.670000000    -1.017000000     5.766000000
H    -3.414000000    -1.142000000     4.852000000
H    -4.604000000    -0.810000000     5.727000000
