215
-1456.32068
C     0.182000000     2.757000000     4.130000000
H     0.340000000     3.782000000     3.804000000
C     1.100000000     1.787000000     3.800000000
C     0.870000000     0.510000000     4.374000000
H     1.575000000    -0.269000000     4.095000000
C     2.188000000     2.003000000     2.713000000
O     2.451000000     3.366000000     2.522000000
H     1.759000000     1.682000000     1.752000000
O     3.467000000     1.287000000     2.921000000
C     3.957000000     0.625000000     1.873000000
C     4.085000000    -0.761000000     2.077000000
H     3.792000000    -1.259000000     2.998000000
C     4.524000000    -1.527000000     1.018000000
O     4.303000000    -2.843000000     1.096000000
C     4.899000000    -0.909000000    -0.180000000
C     5.317000000    -1.724000000    -1.380000000
H     6.010000000    -1.082000000    -1.926000000
C     4.013000000    -1.985000000    -2.240000000
C     3.596000000    -1.112000000    -3.211000000
H     4.184000000    -0.228000000    -3.445000000
H     5.897000000    -2.636000000    -1.222000000
C     4.912000000     0.458000000    -0.336000000
H     5.433000000     0.896000000    -1.184000000
C     4.530000000     1.201000000     0.739000000
C     4.738000000     2.670000000     0.741000000
H     5.590000000     2.917000000     0.103000000
H     5.083000000     2.890000000     1.753000000
C     3.460000000     3.455000000     0.308000000
C     3.271000000     3.647000000    -1.053000000
H     4.042000000     3.384000000    -1.772000000
C     2.420000000     3.746000000     1.222000000
C     1.215000000     4.228000000     0.721000000
H     0.332000000     4.473000000     1.305000000
C     1.053000000     4.452000000    -0.646000000
O    -0.153000000     4.908000000    -1.104000000
C    -1.121000000     3.959000000    -1.696000000
C    -2.619000000     4.226000000    -1.349000000
C    -3.676000000     4.010000000    -2.237000000
H    -3.401000000     3.651000000    -3.226000000
C    -2.887000000     4.636000000    -0.055000000
H    -2.048000000     4.788000000     0.619000000
O    -0.940000000     4.063000000    -3.145000000
H    -0.824000000     2.949000000    -1.379000000
C     2.074000000     4.144000000    -1.542000000
C     1.938000000     4.344000000    -3.043000000
H     2.966000000     4.401000000    -3.408000000
H     1.396000000     5.241000000    -3.349000000
C     1.184000000     3.181000000    -3.639000000
C     1.917000000     1.978000000    -3.962000000
H     2.994000000     2.110000000    -3.893000000
C    -0.210000000     3.077000000    -3.733000000
C    -0.826000000     1.884000000    -4.037000000
H    -1.904000000     1.792000000    -3.935000000
C    -0.111000000     0.784000000    -4.438000000
O    -0.645000000    -0.502000000    -4.621000000
C    -0.564000000    -1.509000000    -3.615000000
C    -1.912000000    -2.085000000    -3.147000000
C    -3.076000000    -1.280000000    -3.129000000
H    -2.982000000    -0.264000000    -3.502000000
C    -1.872000000    -3.298000000    -2.477000000
H    -0.949000000    -3.866000000    -2.396000000
O     0.334000000    -2.564000000    -4.018000000
H    -0.179000000    -1.033000000    -2.701000000
C     1.294000000     0.871000000    -4.487000000
C     2.189000000    -0.303000000    -5.058000000
H     3.146000000     0.129000000    -5.357000000
H     1.721000000    -0.702000000    -5.960000000
C     2.455000000    -1.275000000    -3.962000000
C     1.650000000    -2.417000000    -3.628000000
C     2.040000000    -3.332000000    -2.655000000
H     1.349000000    -4.149000000    -2.463000000
C     3.198000000    -3.056000000    -1.884000000
O     3.499000000    -3.812000000    -0.787000000
C     3.087000000    -3.308000000     0.526000000
H     2.424000000    -2.437000000     0.421000000
C     2.419000000    -4.375000000     1.433000000
C     2.523000000    -4.272000000     2.831000000
H     3.133000000    -3.473000000     3.244000000
C     1.752000000    -5.416000000     0.892000000
H     1.707000000    -5.556000000    -0.185000000
C     1.098000000    -6.349000000     1.662000000
O     0.545000000    -7.449000000     0.985000000
C     1.074000000    -6.243000000     3.041000000
H     0.628000000    -6.979000000     3.705000000
C     1.799000000    -5.214000000     3.615000000
O     1.721000000    -5.127000000     5.005000000
C     1.750000000    -3.969000000     5.708000000
C     0.753000000    -3.043000000     5.334000000
H     0.119000000    -3.359000000     4.510000000
C     2.767000000    -3.626000000     6.612000000
H     3.505000000    -4.394000000     6.824000000
C     2.619000000    -2.396000000     7.237000000
H     3.292000000    -2.260000000     8.079000000
C     1.581000000    -1.538000000     6.954000000
H     1.413000000    -0.594000000     7.467000000
C     0.607000000    -1.827000000     5.937000000
O    -0.476000000    -1.018000000     5.587000000
C    -0.283000000     0.189000000     5.090000000
C    -1.102000000     1.195000000     5.482000000
H    -1.994000000     0.966000000     6.060000000
C    -0.950000000     2.466000000     4.882000000
O    -1.975000000     3.469000000     5.127000000
C    -2.239000000     4.407000000     4.213000000
C    -3.297000000     4.318000000     3.334000000
H    -3.844000000     3.382000000     3.242000000
C    -1.660000000     5.648000000     4.394000000
H    -1.030000000     5.856000000     5.255000000
C    -2.100000000     6.747000000     3.660000000
H    -1.572000000     7.684000000     3.820000000
C    -3.093000000     6.622000000     2.717000000
H    -3.439000000     7.488000000     2.159000000
C    -3.718000000     5.399000000     2.619000000
O    -4.662000000     5.285000000     1.631000000
C    -4.245000000     4.893000000     0.376000000
C    -5.247000000     4.627000000    -0.554000000
H    -6.251000000     4.902000000    -0.241000000
C    -4.965000000     4.206000000    -1.829000000
O    -5.981000000     3.827000000    -2.678000000
C    -5.994000000     2.536000000    -3.178000000
C    -5.654000000     1.409000000    -2.465000000
H    -5.448000000     1.423000000    -1.397000000
C    -6.528000000     2.425000000    -4.455000000
H    -6.773000000     3.249000000    -5.120000000
C    -6.629000000     1.100000000    -5.031000000
H    -7.096000000     0.985000000    -6.005000000
C    -6.279000000    -0.014000000    -4.351000000
H    -6.375000000    -1.039000000    -4.700000000
C    -5.697000000     0.106000000    -3.084000000
O    -5.423000000    -1.008000000    -2.350000000
C    -4.183000000    -1.698000000    -2.502000000
C    -4.191000000    -2.937000000    -1.829000000
H    -5.121000000    -3.297000000    -1.395000000
C    -3.047000000    -3.719000000    -1.854000000
O    -2.938000000    -4.824000000    -1.029000000
C    -1.942000000    -5.776000000    -1.206000000
C    -1.773000000    -6.544000000    -2.376000000
H    -2.339000000    -6.272000000    -3.263000000
C    -0.863000000    -7.614000000    -2.466000000
H    -0.725000000    -8.256000000    -3.332000000
C    -0.147000000    -7.909000000    -1.240000000
H     0.581000000    -8.716000000    -1.216000000
C    -0.263000000    -7.122000000    -0.122000000
C    -1.126000000    -5.984000000    -0.110000000
H    -1.301000000    -5.365000000     0.766000000
C    -0.188000000    -1.672000000     0.787000000
H     0.168000000    -2.699000000     0.817000000
C     0.429000000    -0.699000000     0.009000000
H     1.203000000    -1.072000000    -0.656000000
C     0.016000000     0.625000000     0.112000000
H     0.541000000     1.415000000    -0.405000000
C    -1.188000000     0.931000000     0.751000000
H    -1.639000000     1.920000000     0.787000000
C    -1.922000000    -0.085000000     1.405000000
H    -2.832000000     0.179000000     1.937000000
C    -1.332000000    -1.384000000     1.518000000
C    -1.937000000    -2.448000000     2.350000000
O    -3.064000000    -2.237000000     2.697000000
O    -1.467000000    -3.586000000     2.407000000
O    -5.859000000     0.478000000     2.848000000
H    -5.319000000    -0.125000000     2.336000000
H    -6.716000000     0.451000000     2.423000000
O    -3.971000000    -5.717000000     8.034000000
H    -4.794000000    -6.015000000     8.420000000
H    -4.075000000    -5.871000000     7.095000000
O    -1.007000000    -9.460000000     2.735000000
H    -0.226000000    -9.058000000     2.355000000
H    -1.206000000    -8.920000000     3.500000000
O    -3.896000000    -0.448000000     4.570000000
H    -4.530000000     0.066000000     4.069000000
H    -3.539000000    -1.070000000     3.936000000
O    -6.627000000     0.969000000     5.170000000
H    -6.491000000     0.941000000     4.223000000
H    -5.884000000     1.470000000     5.505000000
O    -2.376000000    -7.826000000     4.858000000
H    -2.176000000    -7.259000000     4.113000000
H    -3.332000000    -7.840000000     4.899000000
O    -6.428000000    -6.518000000     4.508000000
H    -6.719000000    -5.773000000     3.983000000
H    -5.847000000    -7.008000000     3.926000000
O     0.714000000    -5.979000000     7.899000000
H     1.327000000    -5.957000000     7.164000000
H     0.003000000    -5.394000000     7.635000000
O    -2.757000000    -5.637000000     3.253000000
H    -2.277000000    -4.972000000     2.759000000
H    -3.158000000    -5.155000000     3.976000000
O    -6.731000000    -3.921000000     3.550000000
H    -6.558000000    -3.688000000     2.637000000
H    -5.961000000    -3.611000000     4.026000000
O    -2.508000000    -2.844000000     9.112000000
H    -2.132000000    -3.510000000     8.536000000
H    -1.771000000    -2.274000000     9.332000000
O    -4.712000000    -7.668000000     2.819000000
H    -4.642000000    -8.202000000     2.027000000
H    -4.005000000    -7.028000000     2.739000000
O    -4.613000000    -4.006000000     1.427000000
H    -4.286000000    -4.319000000     0.583000000
H    -3.842000000    -3.642000000     1.862000000
O    -3.961000000    -0.013000000     7.228000000
H    -3.757000000    -0.286000000     6.334000000
H    -3.255000000    -0.381000000     7.759000000
O    -3.523000000    -3.892000000     5.107000000
H    -3.091000000    -3.262000000     4.530000000
H    -4.312000000    -3.440000000     5.406000000
O    -6.974000000    -2.970000000     0.534000000
H    -6.197000000    -3.226000000     1.032000000
H    -6.842000000    -2.041000000     0.345000000
O    -5.743000000    -2.612000000     6.031000000
H    -5.956000000    -1.695000000     6.205000000
H    -6.593000000    -3.043000000     5.941000000
O    -1.554000000    -4.823000000     7.214000000
H    -2.373000000    -5.312000000     7.302000000
H    -1.675000000    -4.294000000     6.426000000
O    -5.033000000    -2.941000000     8.645000000
H    -5.333000000    -3.033000000     7.740000000
H    -4.094000000    -3.123000000     8.606000000
