215
-1470.05078
C    -1.844000000     3.129000000     3.944000000
H    -1.841000000     4.020000000     3.322000000
C    -0.637000000     2.422000000     4.045000000
C    -0.625000000     1.247000000     4.780000000
H     0.297000000     0.675000000     4.841000000
C     0.553000000     2.699000000     3.103000000
O     0.628000000     4.101000000     2.759000000
H     0.396000000     2.096000000     2.196000000
O     1.784000000     2.163000000     3.657000000
C     2.736000000     1.590000000     2.894000000
C     2.853000000     0.236000000     3.038000000
H     2.287000000    -0.368000000     3.742000000
C     3.715000000    -0.406000000     2.166000000
O     3.686000000    -1.786000000     2.294000000
C     4.476000000     0.149000000     1.184000000
C     5.556000000    -0.660000000     0.382000000
H     6.268000000    -0.001000000    -0.120000000
C     4.739000000    -1.252000000    -0.772000000
C     4.722000000    -0.504000000    -1.965000000
H     5.256000000     0.443000000    -1.944000000
H     6.014000000    -1.545000000     0.828000000
C     4.388000000     1.616000000     1.096000000
H     4.881000000     2.201000000     0.324000000
C     3.513000000     2.298000000     1.975000000
C     3.424000000     3.819000000     1.850000000
H     4.316000000     4.228000000     1.370000000
H     3.346000000     4.376000000     2.787000000
C     2.283000000     4.104000000     0.938000000
C     2.537000000     4.205000000    -0.446000000
H     3.529000000     3.964000000    -0.817000000
C     0.974000000     4.206000000     1.455000000
C    -0.063000000     4.611000000     0.684000000
H    -1.060000000     4.727000000     1.100000000
C     0.218000000     4.619000000    -0.725000000
O    -0.847000000     4.675000000    -1.588000000
C    -1.277000000     3.402000000    -2.001000000
C    -2.736000000     3.143000000    -1.747000000
C    -3.358000000     2.057000000    -2.347000000
H    -2.752000000     1.239000000    -2.729000000
C    -3.494000000     3.973000000    -0.907000000
H    -3.102000000     4.853000000    -0.404000000
O    -0.933000000     3.188000000    -3.374000000
H    -0.758000000     2.623000000    -1.423000000
C     1.475000000     4.459000000    -1.252000000
C     1.664000000     4.481000000    -2.783000000
H     2.663000000     4.861000000    -3.007000000
H     1.058000000     5.248000000    -3.268000000
C     1.476000000     3.102000000    -3.382000000
C     2.645000000     2.298000000    -3.525000000
H     3.591000000     2.669000000    -3.137000000
C     0.206000000     2.524000000    -3.583000000
C     0.079000000     1.229000000    -4.071000000
H    -0.913000000     0.839000000    -4.280000000
C     1.253000000     0.556000000    -4.406000000
O     1.070000000    -0.642000000    -5.012000000
C     1.086000000    -1.685000000    -3.955000000
C    -0.043000000    -2.635000000    -4.067000000
C    -1.234000000    -2.274000000    -4.654000000
H    -1.298000000    -1.270000000    -5.067000000
C     0.024000000    -3.950000000    -3.646000000
H     0.868000000    -4.371000000    -3.106000000
O     2.386000000    -2.382000000    -3.999000000
H     0.923000000    -1.297000000    -2.938000000
C     2.530000000     1.000000000    -3.997000000
C     3.781000000     0.145000000    -4.200000000
H     4.616000000     0.817000000    -4.408000000
H     3.570000000    -0.424000000    -5.108000000
C     3.966000000    -0.861000000    -3.078000000
C     3.299000000    -2.068000000    -3.012000000
C     3.262000000    -2.784000000    -1.845000000
H     2.602000000    -3.616000000    -1.613000000
C     4.005000000    -2.441000000    -0.737000000
O     3.917000000    -3.214000000     0.371000000
C     3.022000000    -2.610000000     1.399000000
H     2.330000000    -1.976000000     0.825000000
C     2.056000000    -3.648000000     2.105000000
C     1.877000000    -3.575000000     3.501000000
H     2.437000000    -2.853000000     4.089000000
C     1.339000000    -4.655000000     1.425000000
H     1.577000000    -4.698000000     0.366000000
C     0.545000000    -5.606000000     2.052000000
O     0.050000000    -6.691000000     1.412000000
C     0.475000000    -5.521000000     3.461000000
H     0.008000000    -6.217000000     4.153000000
C     1.081000000    -4.491000000     4.193000000
O     0.866000000    -4.329000000     5.537000000
C     0.614000000    -3.137000000     6.145000000
C    -0.531000000    -2.374000000     5.841000000
H    -1.235000000    -2.723000000     5.090000000
C     1.618000000    -2.619000000     6.914000000
H     2.543000000    -3.165000000     7.078000000
C     1.417000000    -1.362000000     7.602000000
H     2.136000000    -1.030000000     8.346000000
C     0.264000000    -0.616000000     7.379000000
H     0.170000000     0.373000000     7.822000000
C    -0.674000000    -1.103000000     6.474000000
O    -1.721000000    -0.348000000     6.181000000
C    -1.734000000     0.853000000     5.499000000
C    -2.887000000     1.582000000     5.454000000
H    -3.826000000     1.285000000     5.914000000
C    -2.966000000     2.680000000     4.587000000
O    -4.127000000     3.283000000     4.516000000
C    -4.419000000     4.319000000     3.579000000
C    -4.975000000     3.909000000     2.389000000
H    -5.035000000     2.871000000     2.074000000
C    -4.244000000     5.656000000     3.894000000
H    -3.824000000     5.929000000     4.859000000
C    -4.566000000     6.590000000     2.989000000
H    -4.437000000     7.644000000     3.221000000
C    -4.921000000     6.234000000     1.680000000
H    -5.013000000     7.067000000     0.989000000
C    -5.229000000     4.862000000     1.423000000
O    -5.588000000     4.517000000     0.200000000
C    -4.861000000     3.730000000    -0.684000000
C    -5.513000000     2.729000000    -1.368000000
H    -6.589000000     2.604000000    -1.279000000
C    -4.780000000     1.904000000    -2.234000000
O    -5.380000000     0.873000000    -2.853000000
C    -4.881000000     0.372000000    -4.079000000
C    -4.435000000    -0.950000000    -4.105000000
H    -4.439000000    -1.561000000    -3.206000000
C    -4.661000000     1.164000000    -5.219000000
H    -4.987000000     2.200000000    -5.269000000
C    -3.984000000     0.666000000    -6.342000000
H    -3.751000000     1.326000000    -7.174000000
C    -3.651000000    -0.713000000    -6.371000000
H    -3.056000000    -1.135000000    -7.177000000
C    -3.950000000    -1.523000000    -5.287000000
O    -3.535000000    -2.815000000    -5.295000000
C    -2.302000000    -3.153000000    -4.743000000
C    -2.181000000    -4.449000000    -4.354000000
H    -2.998000000    -5.164000000    -4.396000000
C    -1.036000000    -4.840000000    -3.666000000
O    -0.826000000    -6.189000000    -3.324000000
C    -0.042000000    -6.727000000    -2.304000000
C     1.000000000    -7.621000000    -2.571000000
H     1.167000000    -8.017000000    -3.569000000
C     1.780000000    -8.106000000    -1.514000000
H     2.525000000    -8.850000000    -1.782000000
C     1.498000000    -7.793000000    -0.168000000
H     2.029000000    -8.147000000     0.712000000
C     0.365000000    -6.923000000     0.031000000
C    -0.371000000    -6.389000000    -1.027000000
H    -1.187000000    -5.711000000    -0.789000000
C    -2.150000000    -1.518000000    -0.674000000
H    -2.315000000    -2.401000000    -1.286000000
C    -0.867000000    -1.027000000    -0.572000000
H    -0.018000000    -1.490000000    -1.068000000
C    -0.634000000     0.148000000     0.095000000
H     0.339000000     0.663000000     0.070000000
C    -1.635000000     0.773000000     0.790000000
H    -1.370000000     1.738000000     1.213000000
C    -2.947000000     0.241000000     0.761000000
H    -3.722000000     0.675000000     1.388000000
C    -3.258000000    -0.918000000     0.048000000
C    -4.649000000    -1.503000000     0.179000000
O    -5.426000000    -1.029000000     1.015000000
O    -5.047000000    -2.436000000    -0.545000000
O    -6.652000000     1.084000000     2.408000000
H    -6.279000000     0.523000000     1.729000000
H    -6.545000000     0.584000000     3.217000000
O    -9.517000000    -0.602000000    -1.178000000
H    -8.795000000    -0.973000000    -1.684000000
H    -9.276000000    -0.760000000    -0.265000000
O    -4.061000000    -4.207000000     3.819000000
H    -3.420000000    -4.047000000     3.126000000
H    -4.836000000    -4.529000000     3.359000000
O    -9.309000000    -0.907000000     3.248000000
H    -8.573000000    -0.810000000     3.852000000
H   -10.050000000    -1.139000000     3.808000000
O    -6.390000000    -4.322000000    -4.557000000
H    -7.259000000    -4.669000000    -4.759000000
H    -6.113000000    -3.887000000    -5.363000000
O    -5.180000000    -4.616000000    -2.123000000
H    -5.108000000    -3.734000000    -1.757000000
H    -5.582000000    -4.487000000    -2.982000000
O    -6.353000000    -4.659000000     2.480000000
H    -6.849000000    -4.262000000     1.764000000
H    -6.197000000    -5.559000000     2.193000000
O    -7.346000000    -1.957000000    -2.418000000
H    -7.345000000    -2.791000000    -2.887000000
H    -6.428000000    -1.807000000    -2.195000000
O    -8.063000000    -5.843000000    -1.971000000
H    -8.074000000    -5.367000000    -2.801000000
H    -7.867000000    -5.176000000    -1.314000000
O    -1.424000000    -2.709000000     2.771000000
H    -1.095000000    -1.835000000     2.560000000
H    -1.850000000    -3.006000000     1.967000000
O    -5.920000000    -1.677000000     3.541000000
H    -5.648000000    -1.486000000     2.643000000
H    -5.815000000    -2.625000000     3.626000000
O    -8.051000000     0.166000000    -4.331000000
H    -7.844000000     0.864000000    -3.709000000
H    -8.161000000    -0.614000000    -3.788000000
O    -2.974000000    -4.562000000     0.867000000
H    -3.652000000    -4.182000000     0.308000000
H    -2.898000000    -5.468000000     0.569000000
O    -7.155000000    -3.979000000    -0.064000000
H    -6.290000000    -3.593000000    -0.202000000
H    -7.755000000    -3.233000000    -0.073000000
O    -7.299000000     0.203000000     5.088000000
H    -7.216000000     0.597000000     5.956000000
H    -6.630000000    -0.482000000     5.071000000
O    -8.493000000     2.964000000     1.497000000
H    -8.300000000     3.758000000     1.997000000
H    -7.888000000     2.309000000     1.846000000
O    -3.811000000    -6.859000000    -1.088000000
H    -4.132000000    -6.066000000    -1.517000000
H    -4.509000000    -7.102000000    -0.480000000
O    -8.212000000    -1.389000000     0.885000000
H    -7.267000000    -1.344000000     1.033000000
H    -8.598000000    -1.150000000     1.727000000
O    -4.359000000    -1.859000000     6.465000000
H    -4.869000000    -2.134000000     5.703000000
H    -3.478000000    -1.710000000     6.122000000
