215
-1474.86056
C    -0.674000000     3.119000000     3.945000000
H    -0.826000000     3.910000000     3.215000000
C     0.585000000     2.578000000     4.017000000
C     0.819000000     1.587000000     5.010000000
H     1.773000000     1.072000000     4.946000000
C     1.598000000     2.928000000     2.939000000
O     1.488000000     4.296000000     2.473000000
H     1.221000000     2.390000000     2.057000000
O     2.917000000     2.611000000     3.396000000
C     3.629000000     1.816000000     2.512000000
C     3.725000000     0.417000000     2.785000000
H     3.297000000     0.092000000     3.730000000
C     4.160000000    -0.400000000     1.751000000
O     4.013000000    -1.769000000     2.019000000
C     4.794000000     0.074000000     0.565000000
C     5.422000000    -0.865000000    -0.462000000
H     6.163000000    -0.264000000    -0.994000000
C     4.303000000    -1.381000000    -1.382000000
C     4.140000000    -0.768000000    -2.642000000
H     4.837000000     0.033000000    -2.878000000
H     5.997000000    -1.675000000    -0.007000000
C     4.834000000     1.431000000     0.389000000
H     5.352000000     1.807000000    -0.489000000
C     4.226000000     2.325000000     1.331000000
C     4.132000000     3.828000000     1.002000000
H     4.981000000     4.138000000     0.389000000
H     4.123000000     4.424000000     1.917000000
C     2.749000000     4.206000000     0.339000000
C     2.710000000     4.282000000    -1.040000000
H     3.642000000     4.015000000    -1.532000000
C     1.556000000     4.382000000     1.074000000
C     0.349000000     4.483000000     0.438000000
H    -0.574000000     4.527000000     1.009000000
C     0.292000000     4.410000000    -0.992000000
O    -0.937000000     4.407000000    -1.666000000
C    -1.550000000     3.217000000    -2.272000000
C    -3.065000000     3.175000000    -1.995000000
C    -3.871000000     2.216000000    -2.618000000
H    -3.461000000     1.726000000    -3.497000000
C    -3.456000000     3.888000000    -0.859000000
H    -2.814000000     4.553000000    -0.288000000
O    -1.188000000     3.279000000    -3.693000000
H    -1.047000000     2.289000000    -1.963000000
C     1.474000000     4.277000000    -1.659000000
C     1.476000000     4.293000000    -3.222000000
H     2.400000000     4.727000000    -3.611000000
H     0.723000000     5.034000000    -3.499000000
C     1.156000000     2.914000000    -3.856000000
C     2.135000000     2.019000000    -4.073000000
H     3.176000000     2.240000000    -3.851000000
C    -0.146000000     2.533000000    -4.079000000
C    -0.429000000     1.226000000    -4.471000000
H    -1.454000000     0.877000000    -4.567000000
C     0.545000000     0.331000000    -4.736000000
O     0.059000000    -0.948000000    -4.942000000
C     0.168000000    -1.794000000    -3.790000000
C    -1.065000000    -2.669000000    -3.568000000
C    -2.242000000    -2.408000000    -4.288000000
H    -2.274000000    -1.522000000    -4.917000000
C    -1.045000000    -3.742000000    -2.720000000
H    -0.169000000    -3.951000000    -2.112000000
O     1.318000000    -2.656000000    -3.952000000
H     0.249000000    -1.092000000    -2.947000000
C     1.863000000     0.682000000    -4.549000000
C     2.928000000    -0.341000000    -4.789000000
H     3.837000000     0.230000000    -4.991000000
H     2.735000000    -1.008000000    -5.631000000
C     3.185000000    -1.190000000    -3.560000000
C     2.402000000    -2.264000000    -3.200000000
C     2.637000000    -3.000000000    -2.039000000
H     2.002000000    -3.859000000    -1.840000000
C     3.567000000    -2.524000000    -1.115000000
O     3.680000000    -3.224000000     0.052000000
C     3.111000000    -2.586000000     1.243000000
H     2.325000000    -1.939000000     0.826000000
C     2.362000000    -3.606000000     2.134000000
C     2.119000000    -3.334000000     3.501000000
H     2.420000000    -2.393000000     3.954000000
C     1.962000000    -4.806000000     1.559000000
H     2.257000000    -5.139000000     0.568000000
C     1.099000000    -5.649000000     2.221000000
O     0.772000000    -6.943000000     1.774000000
C     0.675000000    -5.309000000     3.525000000
H    -0.119000000    -5.879000000     4.000000000
C     1.154000000    -4.154000000     4.108000000
O     0.511000000    -3.801000000     5.291000000
C     1.045000000    -2.853000000     6.201000000
C     0.500000000    -1.603000000     6.210000000
H    -0.443000000    -1.386000000     5.716000000
C     2.119000000    -3.120000000     6.984000000
H     2.690000000    -4.024000000     6.787000000
C     2.662000000    -2.149000000     7.795000000
H     3.590000000    -2.372000000     8.315000000
C     2.021000000    -0.928000000     7.913000000
H     2.327000000    -0.220000000     8.679000000
C     0.957000000    -0.591000000     7.042000000
O     0.337000000     0.619000000     7.112000000
C    -0.098000000     1.390000000     6.053000000
C    -1.318000000     2.076000000     6.073000000
H    -1.857000000     1.895000000     7.000000000
C    -1.585000000     2.904000000     4.926000000
O    -2.740000000     3.648000000     4.905000000
C    -3.185000000     4.486000000     3.911000000
C    -3.880000000     3.938000000     2.833000000
H    -4.028000000     2.863000000     2.769000000
C    -3.117000000     5.892000000     4.025000000
H    -2.594000000     6.438000000     4.806000000
C    -3.478000000     6.681000000     2.913000000
H    -3.385000000     7.761000000     2.992000000
C    -4.118000000     6.120000000     1.810000000
H    -4.544000000     6.688000000     0.987000000
C    -4.410000000     4.780000000     1.857000000
O    -5.162000000     4.310000000     0.782000000
C    -4.755000000     3.600000000    -0.321000000
C    -5.593000000     2.729000000    -0.995000000
H    -6.579000000     2.584000000    -0.562000000
C    -5.153000000     1.984000000    -2.045000000
O    -6.050000000     1.199000000    -2.730000000
C    -5.808000000     0.418000000    -3.829000000
C    -5.316000000    -0.868000000    -3.647000000
H    -5.062000000    -1.206000000    -2.645000000
C    -5.977000000     0.992000000    -5.115000000
H    -6.448000000     1.965000000    -5.229000000
C    -5.750000000     0.205000000    -6.228000000
H    -5.982000000     0.735000000    -7.148000000
C    -5.271000000    -1.071000000    -6.102000000
H    -5.124000000    -1.746000000    -6.942000000
C    -5.022000000    -1.615000000    -4.805000000
O    -4.552000000    -2.903000000    -4.699000000
C    -3.403000000    -3.167000000    -4.088000000
C    -3.307000000    -4.332000000    -3.324000000
H    -4.108000000    -5.063000000    -3.249000000
C    -2.151000000    -4.568000000    -2.563000000
O    -2.271000000    -5.512000000    -1.608000000
C    -1.203000000    -6.273000000    -1.185000000
C    -0.442000000    -6.887000000    -2.163000000
H    -0.723000000    -6.842000000    -3.212000000
C     0.508000000    -7.797000000    -1.723000000
H     0.882000000    -8.525000000    -2.438000000
C     0.832000000    -7.956000000    -0.413000000
H     1.597000000    -8.647000000    -0.069000000
C     0.221000000    -7.114000000     0.535000000
C    -0.862000000    -6.299000000     0.135000000
H    -1.401000000    -5.658000000     0.828000000
C    -2.485000000    -0.671000000    -0.711000000
H    -2.739000000    -1.524000000    -1.336000000
C    -1.261000000     0.022000000    -0.689000000
H    -0.429000000    -0.341000000    -1.286000000
C    -1.046000000     1.087000000     0.147000000
H    -0.088000000     1.542000000     0.237000000
C    -2.092000000     1.585000000     0.946000000
H    -1.905000000     2.527000000     1.454000000
C    -3.306000000     0.927000000     0.928000000
H    -4.130000000     1.307000000     1.525000000
C    -3.511000000    -0.243000000     0.141000000
C    -4.764000000    -0.993000000     0.148000000
O    -5.785000000    -0.613000000     0.750000000
O    -4.824000000    -2.059000000    -0.410000000
O    -7.794000000     0.343000000     1.818000000
H    -7.078000000     0.048000000     1.256000000
H    -7.359000000     0.689000000     2.598000000
O    -3.123000000    -4.356000000     4.703000000
H    -2.618000000    -3.581000000     4.457000000
H    -3.778000000    -4.444000000     4.011000000
O    -4.761000000    -4.737000000     2.634000000
H    -5.231000000    -5.551000000     2.455000000
H    -4.175000000    -4.628000000     1.885000000
O   -10.206000000    -1.208000000     2.450000000
H    -9.419000000    -0.707000000     2.236000000
H   -10.166000000    -1.974000000     1.878000000
O    -6.457000000    -4.020000000    -1.079000000
H    -5.973000000    -3.248000000    -0.786000000
H    -7.100000000    -3.679000000    -1.700000000
O    -8.026000000    -0.449000000    -1.172000000
H    -7.942000000     0.406000000    -1.594000000
H    -7.161000000    -0.618000000    -0.799000000
O   -10.828000000    -0.184000000    -1.018000000
H    -9.875000000    -0.153000000    -1.098000000
H   -11.019000000    -1.088000000    -0.771000000
O    -7.843000000    -6.250000000    -0.748000000
H    -8.050000000    -6.454000000     0.164000000
H    -7.256000000    -5.496000000    -0.697000000
O    -9.603000000     2.504000000     1.367000000
H    -9.825000000     2.180000000     2.240000000
H    -8.837000000     1.990000000     1.110000000
O    -0.224000000    -0.723000000     2.758000000
H    -0.514000000     0.046000000     2.267000000
H     0.542000000    -1.038000000     2.278000000
O    -2.693000000    -1.894000000     3.197000000
H    -2.923000000    -2.059000000     2.283000000
H    -1.778000000    -1.612000000     3.167000000
O    -8.496000000     2.019000000    -2.707000000
H    -7.604000000     2.067000000    -3.050000000
H    -8.757000000     2.932000000    -2.588000000
O    -3.324000000    -4.014000000     0.524000000
H    -3.967000000    -3.423000000     0.131000000
H    -3.149000000    -4.664000000    -0.157000000
O    -8.126000000    -2.707000000     1.021000000
H    -7.927000000    -1.915000000     0.523000000
H    -7.894000000    -2.488000000     1.924000000
O    -5.306000000    -1.769000000     5.869000000
H    -5.224000000    -0.829000000     5.711000000
H    -5.854000000    -2.086000000     5.151000000
O    -8.164000000    -1.944000000    -3.377000000
H    -8.979000000    -2.445000000    -3.369000000
H    -8.208000000    -1.401000000    -2.590000000
O    -6.406000000     1.677000000     3.970000000
H    -6.948000000     1.540000000     4.747000000
H    -5.591000000     1.213000000     4.161000000
O    -6.311000000    -2.392000000     2.955000000
H    -5.908000000    -3.238000000     2.761000000
H    -5.954000000    -1.800000000     2.293000000
O    -3.998000000     0.149000000     4.075000000
H    -3.195000000     0.670000000     4.087000000
H    -3.728000000    -0.699000000     3.723000000
