215
-1487.99511
C    -1.339000000     2.930000000     4.023000000
H    -1.469000000     3.805000000     3.393000000
C    -0.166000000     2.222000000     4.099000000
C     0.007000000     1.285000000     5.145000000
H     0.972000000     0.854000000     5.397000000
C     1.049000000     2.436000000     3.194000000
O     1.041000000     3.807000000     2.737000000
H     0.867000000     1.872000000     2.268000000
O     2.255000000     2.018000000     3.817000000
C     3.041000000     1.303000000     2.912000000
C     3.082000000    -0.110000000     3.076000000
H     2.446000000    -0.587000000     3.818000000
C     3.792000000    -0.842000000     2.184000000
O     3.747000000    -2.249000000     2.209000000
C     4.474000000    -0.236000000     1.122000000
C     5.239000000    -1.079000000     0.136000000
H     6.176000000    -0.633000000    -0.203000000
C     4.421000000    -1.486000000    -1.045000000
C     4.424000000    -0.762000000    -2.202000000
H     4.972000000     0.177000000    -2.202000000
H     5.600000000    -1.955000000     0.680000000
C     4.471000000     1.165000000     1.014000000
H     5.066000000     1.656000000     0.247000000
C     3.854000000     1.939000000     1.990000000
C     3.854000000     3.457000000     1.946000000
H     4.781000000     3.912000000     1.591000000
H     3.769000000     3.835000000     2.967000000
C     2.795000000     3.926000000     1.023000000
C     2.944000000     4.070000000    -0.344000000
H     3.925000000     3.852000000    -0.757000000
C     1.482000000     4.239000000     1.507000000
C     0.403000000     4.609000000     0.692000000
H    -0.585000000     4.831000000     1.088000000
C     0.664000000     4.609000000    -0.692000000
O    -0.444000000     4.840000000    -1.447000000
C    -0.984000000     3.612000000    -1.980000000
C    -2.515000000     3.511000000    -1.798000000
C    -3.206000000     2.560000000    -2.569000000
H    -2.714000000     2.028000000    -3.378000000
C    -3.071000000     4.255000000    -0.767000000
H    -2.638000000     5.142000000    -0.313000000
O    -0.624000000     3.594000000    -3.412000000
H    -0.560000000     2.762000000    -1.425000000
C     1.929000000     4.429000000    -1.229000000
C     2.204000000     4.435000000    -2.715000000
H     3.264000000     4.625000000    -2.895000000
H     1.602000000     5.249000000    -3.124000000
C     1.707000000     3.073000000    -3.377000000
C     2.750000000     2.186000000    -3.743000000
H     3.795000000     2.433000000    -3.574000000
C     0.435000000     2.807000000    -3.763000000
C     0.120000000     1.636000000    -4.393000000
H    -0.902000000     1.414000000    -4.688000000
C     1.064000000     0.686000000    -4.663000000
O     0.591000000    -0.559000000    -4.988000000
C     0.528000000    -1.548000000    -3.954000000
C    -0.730000000    -2.407000000    -3.907000000
C    -1.882000000    -2.062000000    -4.682000000
H    -1.833000000    -1.066000000    -5.117000000
C    -0.816000000    -3.575000000    -3.166000000
H     0.031000000    -3.962000000    -2.606000000
O     1.695000000    -2.372000000    -4.098000000
H     0.634000000    -0.979000000    -3.019000000
C     2.332000000     0.924000000    -4.216000000
C     3.497000000    -0.100000000    -4.489000000
H     4.428000000     0.431000000    -4.697000000
H     3.224000000    -0.719000000    -5.347000000
C     3.622000000    -1.091000000    -3.275000000
C     2.681000000    -2.160000000    -3.189000000
C     2.855000000    -3.046000000    -2.149000000
H     2.186000000    -3.880000000    -1.953000000
C     3.635000000    -2.672000000    -0.991000000
O     3.523000000    -3.514000000     0.172000000
C     2.865000000    -2.973000000     1.357000000
H     2.121000000    -2.231000000     1.033000000
C     2.201000000    -4.052000000     2.092000000
C     1.817000000    -3.885000000     3.418000000
H     2.163000000    -3.008000000     3.959000000
C     1.782000000    -5.203000000     1.453000000
H     2.025000000    -5.281000000     0.396000000
C     0.966000000    -6.159000000     1.973000000
O     0.468000000    -7.204000000     1.215000000
C     0.536000000    -5.955000000     3.271000000
H    -0.134000000    -6.649000000     3.771000000
C     0.929000000    -4.796000000     3.965000000
O     0.527000000    -4.617000000     5.302000000
C     0.737000000    -3.419000000     5.953000000
C    -0.265000000    -2.442000000     5.933000000
H    -1.059000000    -2.562000000     5.200000000
C     1.825000000    -3.276000000     6.827000000
H     2.609000000    -4.004000000     7.020000000
C     1.937000000    -2.131000000     7.659000000
H     2.730000000    -1.938000000     8.377000000
C     0.957000000    -1.137000000     7.594000000
H     0.973000000    -0.243000000     8.213000000
C    -0.112000000    -1.277000000     6.685000000
O    -1.112000000    -0.234000000     6.679000000
C    -1.161000000     0.830000000     5.801000000
C    -2.347000000     1.455000000     5.578000000
H    -3.270000000     1.176000000     6.082000000
C    -2.432000000     2.583000000     4.770000000
O    -3.555000000     3.367000000     4.700000000
C    -3.807000000     4.410000000     3.792000000
C    -4.331000000     4.124000000     2.561000000
H    -4.641000000     3.100000000     2.370000000
C    -3.693000000     5.705000000     4.190000000
H    -3.302000000     6.030000000     5.151000000
C    -4.007000000     6.738000000     3.306000000
H    -3.753000000     7.754000000     3.595000000
C    -4.486000000     6.464000000     2.026000000
H    -4.721000000     7.242000000     1.305000000
C    -4.600000000     5.133000000     1.666000000
O    -5.128000000     4.835000000     0.435000000
C    -4.449000000     4.094000000    -0.489000000
C    -5.161000000     3.185000000    -1.206000000
H    -6.228000000     3.044000000    -1.049000000
C    -4.547000000     2.412000000    -2.240000000
O    -5.454000000     1.645000000    -2.895000000
C    -5.169000000     0.963000000    -4.101000000
C    -4.760000000    -0.364000000    -4.076000000
H    -4.625000000    -0.781000000    -3.081000000
C    -5.431000000     1.613000000    -5.346000000
H    -5.863000000     2.610000000    -5.333000000
C    -5.234000000     0.915000000    -6.475000000
H    -5.260000000     1.444000000    -7.424000000
C    -4.710000000    -0.383000000    -6.449000000
H    -4.460000000    -0.812000000    -7.416000000
C    -4.568000000    -1.015000000    -5.234000000
O    -4.185000000    -2.387000000    -5.213000000
C    -3.034000000    -2.796000000    -4.643000000
C    -3.066000000    -3.967000000    -3.936000000
H    -4.048000000    -4.427000000    -3.865000000
C    -1.979000000    -4.413000000    -3.220000000
O    -1.992000000    -5.570000000    -2.493000000
C    -0.931000000    -6.238000000    -2.030000000
C    -0.046000000    -6.856000000    -2.837000000
H    -0.140000000    -6.707000000    -3.909000000
C     1.017000000    -7.607000000    -2.356000000
H     1.752000000    -8.101000000    -2.986000000
C     1.141000000    -7.775000000    -1.005000000
H     1.921000000    -8.384000000    -0.555000000
C     0.219000000    -7.169000000    -0.162000000
C    -0.880000000    -6.364000000    -0.644000000
H    -1.483000000    -5.940000000     0.155000000
C    -2.411000000    -0.978000000    -0.592000000
H    -2.302000000    -1.773000000    -1.325000000
C    -1.275000000    -0.221000000    -0.386000000
H    -0.349000000    -0.457000000    -0.904000000
C    -1.293000000     0.941000000     0.347000000
H    -0.442000000     1.567000000     0.467000000
C    -2.455000000     1.283000000     0.979000000
H    -2.588000000     2.170000000     1.593000000
C    -3.647000000     0.554000000     0.770000000
H    -4.592000000     0.869000000     1.206000000
C    -3.641000000    -0.609000000    -0.024000000
C    -4.919000000    -1.430000000    -0.283000000
O    -6.006000000    -1.088000000     0.181000000
O    -4.858000000    -2.549000000    -0.772000000
O    -7.341000000     1.009000000     1.389000000
H    -6.809000000     0.236000000     1.198000000
H    -6.941000000     1.389000000     2.171000000
O    -8.805000000     3.143000000    -0.293000000
H    -8.768000000     2.381000000    -0.872000000
H    -8.480000000     2.821000000     0.548000000
O    -3.013000000    -6.303000000     2.407000000
H    -3.375000000    -5.548000000     1.941000000
H    -2.852000000    -6.952000000     1.722000000
O    -6.536000000    -3.890000000    -4.697000000
H    -7.362000000    -3.449000000    -4.897000000
H    -5.862000000    -3.300000000    -5.034000000
O    -5.905000000    -4.580000000    -2.071000000
H    -5.511000000    -3.827000000    -1.629000000
H    -6.289000000    -4.215000000    -2.868000000
O    -8.252000000    -4.993000000     3.421000000
H    -7.672000000    -4.366000000     2.989000000
H    -9.128000000    -4.620000000     3.319000000
O    -8.416000000    -1.778000000    -1.079000000
H    -8.894000000    -2.173000000    -0.350000000
H    -7.562000000    -1.553000000    -0.712000000
O    -9.995000000     0.384000000     1.872000000
H    -9.908000000     0.558000000     2.809000000
H    -9.122000000     0.549000000     1.516000000
O    -1.414000000    -1.562000000     2.740000000
H    -1.790000000    -0.992000000     2.070000000
H    -0.550000000    -1.189000000     2.914000000
O    -3.826000000    -3.244000000     2.909000000
H    -4.029000000    -3.799000000     2.155000000
H    -3.017000000    -2.795000000     2.665000000
O    -7.974000000     1.030000000    -1.670000000
H    -8.219000000     0.107000000    -1.734000000
H    -7.051000000     1.051000000    -1.921000000
O    -4.195000000    -4.716000000     0.713000000
H    -4.393000000    -4.027000000     0.079000000
H    -4.243000000    -5.528000000     0.207000000
O    -7.737000000    -4.907000000     0.263000000
H    -7.524000000    -4.767000000    -0.660000000
H    -7.230000000    -4.241000000     0.729000000
O    -7.607000000    -1.059000000     4.387000000
H    -7.166000000    -1.605000000     3.737000000
H    -8.446000000    -1.494000000     4.536000000
O    -9.260000000    -3.395000000    -3.468000000
H    -9.809000000    -3.994000000    -2.962000000
H    -9.215000000    -2.602000000    -2.933000000
O    -6.281000000     1.349000000     3.993000000
H    -5.562000000     0.716000000     3.991000000
H    -7.012000000     0.879000000     4.393000000
O    -4.940000000    -6.725000000    -0.883000000
H    -5.186000000    -6.071000000    -1.538000000
H    -5.773000000    -7.101000000    -0.596000000
O    -6.508000000    -2.700000000     2.532000000
H    -5.729000000    -3.117000000     2.901000000
H    -6.196000000    -2.272000000     1.735000000
O    -4.214000000    -0.679000000     3.887000000
H    -4.019000000    -0.751000000     4.822000000
H    -3.994000000    -1.539000000     3.530000000
