215
-1460.14015
C    -1.458000000     2.674000000     3.670000000
H    -1.559000000     3.451000000     2.917000000
C    -0.224000000     2.072000000     3.843000000
C    -0.171000000     0.951000000     4.690000000
H     0.780000000     0.428000000     4.746000000
C     1.010000000     2.480000000     3.080000000
O     0.958000000     3.897000000     2.778000000
H     0.963000000     1.958000000     2.113000000
O     2.281000000     2.155000000     3.766000000
C     3.291000000     1.562000000     2.993000000
C     3.515000000     0.170000000     3.118000000
H     3.079000000    -0.281000000     4.006000000
C     4.325000000    -0.471000000     2.229000000
O     4.366000000    -1.871000000     2.241000000
C     4.801000000     0.298000000     1.132000000
C     5.523000000    -0.454000000     0.086000000
H     6.302000000     0.189000000    -0.329000000
C     4.515000000    -1.091000000    -0.950000000
C     4.401000000    -0.386000000    -2.146000000
H     4.821000000     0.616000000    -2.183000000
H     6.183000000    -1.146000000     0.613000000
C     4.679000000     1.649000000     1.010000000
H     5.174000000     2.162000000     0.191000000
C     3.845000000     2.298000000     1.942000000
C     3.578000000     3.753000000     1.811000000
H     4.506000000     4.186000000     1.431000000
H     3.400000000     4.205000000     2.789000000
C     2.476000000     4.191000000     0.886000000
C     2.605000000     4.212000000    -0.507000000
H     3.576000000     4.010000000    -0.952000000
C     1.195000000     4.300000000     1.485000000
C     0.101000000     4.576000000     0.629000000
H    -0.880000000     4.692000000     1.084000000
C     0.245000000     4.647000000    -0.775000000
O    -0.913000000     4.835000000    -1.505000000
C    -1.468000000     3.646000000    -2.160000000
C    -3.000000000     3.631000000    -2.026000000
C    -3.751000000     2.753000000    -2.778000000
H    -3.326000000     2.062000000    -3.502000000
C    -3.665000000     4.341000000    -1.012000000
H    -2.989000000     4.951000000    -0.419000000
O    -1.034000000     3.516000000    -3.522000000
H    -1.194000000     2.784000000    -1.533000000
C     1.500000000     4.545000000    -1.286000000
C     1.577000000     4.477000000    -2.799000000
H     2.526000000     4.869000000    -3.171000000
H     0.836000000     5.128000000    -3.270000000
C     1.302000000     3.066000000    -3.364000000
C     2.304000000     2.198000000    -3.600000000
H     3.366000000     2.379000000    -3.448000000
C     0.022000000     2.661000000    -3.642000000
C    -0.239000000     1.346000000    -4.176000000
H    -1.237000000     0.954000000    -4.361000000
C     0.833000000     0.500000000    -4.342000000
O     0.589000000    -0.756000000    -4.709000000
C     0.746000000    -1.831000000    -3.709000000
C    -0.425000000    -2.750000000    -3.857000000
C    -1.690000000    -2.216000000    -4.004000000
H    -1.744000000    -1.138000000    -4.131000000
C    -0.277000000    -4.116000000    -3.588000000
H     0.728000000    -4.530000000    -3.554000000
O     2.083000000    -2.445000000    -3.860000000
H     0.681000000    -1.460000000    -2.675000000
C     2.131000000     0.942000000    -4.157000000
C     3.352000000     0.077000000    -4.395000000
H     4.158000000     0.801000000    -4.530000000
H     3.193000000    -0.515000000    -5.299000000
C     3.566000000    -0.836000000    -3.157000000
C     2.953000000    -2.047000000    -2.957000000
C     3.235000000    -2.884000000    -1.891000000
H     2.750000000    -3.857000000    -1.876000000
C     4.012000000    -2.418000000    -0.824000000
O     4.012000000    -3.163000000     0.323000000
C     3.371000000    -2.514000000     1.422000000
H     2.588000000    -1.847000000     1.033000000
C     2.531000000    -3.530000000     2.147000000
C     2.516000000    -3.651000000     3.555000000
H     3.296000000    -3.181000000     4.149000000
C     1.680000000    -4.393000000     1.463000000
H     1.671000000    -4.347000000     0.377000000
C     0.780000000    -5.280000000     2.109000000
O    -0.176000000    -6.026000000     1.449000000
C     0.683000000    -5.270000000     3.478000000
H     0.035000000    -5.962000000     4.009000000
C     1.589000000    -4.488000000     4.186000000
O     1.526000000    -4.540000000     5.553000000
C     1.224000000    -3.367000000     6.220000000
C     0.068000000    -2.700000000     5.862000000
H    -0.556000000    -3.094000000     5.064000000
C     2.083000000    -2.905000000     7.238000000
H     2.910000000    -3.532000000     7.561000000
C     1.730000000    -1.769000000     7.870000000
H     2.388000000    -1.353000000     8.629000000
C     0.576000000    -0.996000000     7.493000000
H     0.317000000    -0.054000000     7.970000000
C    -0.255000000    -1.474000000     6.408000000
O    -1.335000000    -0.745000000     5.984000000
C    -1.308000000     0.474000000     5.305000000
C    -2.510000000     1.161000000     5.120000000
H    -3.416000000     0.819000000     5.613000000
C    -2.557000000     2.261000000     4.319000000
O    -3.787000000     2.804000000     3.959000000
C    -3.979000000     4.002000000     3.284000000
C    -4.701000000     3.962000000     2.109000000
H    -5.072000000     3.008000000     1.743000000
C    -3.429000000     5.207000000     3.668000000
H    -2.857000000     5.281000000     4.589000000
C    -3.560000000     6.374000000     2.902000000
H    -3.175000000     7.347000000     3.196000000
C    -4.349000000     6.259000000     1.834000000
H    -4.452000000     7.164000000     1.241000000
C    -4.944000000     5.102000000     1.355000000
O    -5.609000000     5.022000000     0.146000000
C    -5.022000000     4.200000000    -0.800000000
C    -5.800000000     3.446000000    -1.670000000
H    -6.851000000     3.459000000    -1.394000000
C    -5.146000000     2.709000000    -2.640000000
O    -5.938000000     1.936000000    -3.430000000
C    -5.511000000     0.930000000    -4.269000000
C    -5.170000000    -0.327000000    -3.741000000
H    -5.221000000    -0.451000000    -2.662000000
C    -5.274000000     1.179000000    -5.596000000
H    -5.486000000     2.163000000    -6.007000000
C    -4.681000000     0.250000000    -6.389000000
H    -4.593000000     0.348000000    -7.468000000
C    -4.242000000    -0.975000000    -5.858000000
H    -3.881000000    -1.727000000    -6.556000000
C    -4.490000000    -1.270000000    -4.515000000
O    -4.132000000    -2.513000000    -3.978000000
C    -2.840000000    -3.033000000    -3.892000000
C    -2.655000000    -4.410000000    -3.722000000
H    -3.518000000    -5.056000000    -3.587000000
C    -1.375000000    -4.900000000    -3.559000000
O    -1.229000000    -6.261000000    -3.297000000
C    -0.464000000    -6.746000000    -2.215000000
C     0.337000000    -7.888000000    -2.334000000
H     0.464000000    -8.408000000    -3.280000000
C     1.084000000    -8.305000000    -1.234000000
H     1.774000000    -9.117000000    -1.451000000
C     0.945000000    -7.734000000     0.059000000
H     1.539000000    -8.088000000     0.897000000
C     0.063000000    -6.654000000     0.176000000
C    -0.618000000    -6.160000000    -0.976000000
H    -1.326000000    -5.338000000    -0.902000000
C    -2.794000000    -1.322000000    -0.357000000
H    -2.901000000    -2.380000000    -0.584000000
C    -1.554000000    -0.769000000    -0.076000000
H    -0.610000000    -1.308000000    -0.087000000
C    -1.424000000     0.531000000     0.386000000
H    -0.468000000     1.045000000     0.423000000
C    -2.629000000     1.237000000     0.558000000
H    -2.597000000     2.286000000     0.843000000
C    -3.880000000     0.704000000     0.180000000
H    -4.807000000     1.271000000     0.202000000
C    -3.996000000    -0.633000000    -0.169000000
C    -5.258000000    -1.406000000    -0.246000000
O    -6.339000000    -0.876000000     0.061000000
O    -5.295000000    -2.505000000    -0.749000000
O    -7.396000000     1.383000000     1.709000000
H    -7.475000000     1.005000000     0.834000000
H    -6.659000000     0.918000000     2.106000000
O    -8.371000000     0.317000000    -5.126000000
H    -8.375000000    -0.631000000    -4.997000000
H    -8.137000000     0.675000000    -4.269000000
O   -10.748000000     1.329000000     1.216000000
H   -10.331000000     0.802000000     0.534000000
H   -10.696000000     0.786000000     2.003000000
O    -3.097000000    -4.331000000     4.777000000
H    -3.559000000    -3.561000000     5.109000000
H    -3.165000000    -4.259000000     3.825000000
O    -2.967000000    -4.788000000     1.986000000
H    -2.212000000    -5.335000000     1.771000000
H    -3.397000000    -4.631000000     1.145000000
O    -6.832000000    -2.871000000     4.749000000
H    -6.074000000    -2.751000000     5.321000000
H    -7.269000000    -3.651000000     5.090000000
O    -7.518000000    -2.243000000    -4.876000000
H    -7.621000000    -3.174000000    -5.074000000
H    -6.653000000    -2.180000000    -4.470000000
O    -7.240000000    -3.374000000    -2.242000000
H    -6.594000000    -3.014000000    -1.635000000
H    -7.825000000    -2.641000000    -2.432000000
O    -5.333000000    -6.270000000     2.073000000
H    -6.006000000    -5.682000000     1.732000000
H    -4.517000000    -5.779000000     1.982000000
O    -6.789000000    -4.203000000     1.082000000
H    -6.525000000    -3.523000000     0.462000000
H    -7.622000000    -3.892000000     1.438000000
O    -9.019000000    -0.351000000    -0.246000000
H    -9.329000000    -1.200000000    -0.562000000
H    -8.088000000    -0.487000000    -0.069000000
O    -5.182000000    -0.020000000     3.078000000
H    -5.021000000    -0.953000000     2.936000000
H    -4.616000000     0.420000000     2.443000000
O    -4.837000000    -2.700000000     2.613000000
H    -5.493000000    -2.867000000     1.937000000
H    -4.055000000    -3.162000000     2.308000000
O    -9.218000000     1.101000000    -2.544000000
H    -9.112000000     2.044000000    -2.417000000
H    -9.075000000     0.725000000    -1.676000000
O    -4.007000000    -4.987000000    -0.675000000
H    -4.166000000    -5.556000000    -1.428000000
H    -4.441000000    -4.164000000    -0.900000000
O    -9.834000000    -4.316000000     1.488000000
H    -9.561000000    -3.584000000     2.041000000
H   -10.529000000    -3.955000000     0.937000000
O    -6.155000000     0.146000000     5.504000000
H    -6.062000000     1.098000000     5.497000000
H    -5.910000000    -0.126000000     4.620000000
O    -6.208000000    -5.842000000    -2.211000000
H    -6.491000000    -4.996000000    -1.863000000
H    -6.333000000    -6.453000000    -1.485000000
O    -9.031000000    -2.334000000     3.019000000
H    -9.259000000    -1.415000000     2.882000000
H    -8.320000000    -2.312000000     3.659000000
