215
-1438.61612
C    -0.414000000     3.107000000     4.698000000
H    -0.382000000     4.085000000     4.223000000
C     0.487000000     2.096000000     4.388000000
C     0.372000000     0.863000000     5.031000000
H     1.030000000     0.031000000     4.794000000
C     1.528000000     2.320000000     3.337000000
O     1.659000000     3.733000000     3.156000000
H     1.123000000     1.801000000     2.455000000
O     2.845000000     1.782000000     3.634000000
C     3.560000000     1.081000000     2.661000000
C     3.567000000    -0.262000000     2.682000000
H     3.111000000    -0.826000000     3.491000000
C     4.195000000    -0.975000000     1.643000000
O     4.010000000    -2.358000000     1.601000000
C     4.883000000    -0.325000000     0.561000000
C     5.451000000    -1.019000000    -0.648000000
H     6.204000000    -0.390000000    -1.128000000
C     4.434000000    -1.372000000    -1.662000000
C     4.234000000    -0.562000000    -2.802000000
H     4.850000000     0.301000000    -3.041000000
H     6.040000000    -1.871000000    -0.303000000
C     4.849000000     1.078000000     0.578000000
H     5.237000000     1.697000000    -0.227000000
C     4.241000000     1.780000000     1.641000000
C     4.218000000     3.334000000     1.651000000
H     5.106000000     3.732000000     1.154000000
H     4.351000000     3.689000000     2.675000000
C     2.920000000     3.944000000     1.094000000
C     2.795000000     4.108000000    -0.344000000
H     3.630000000     3.796000000    -0.965000000
C     1.685000000     4.041000000     1.855000000
C     0.520000000     4.347000000     1.289000000
H    -0.380000000     4.404000000     1.895000000
C     0.456000000     4.601000000    -0.084000000
O    -0.798000000     4.791000000    -0.655000000
C    -1.393000000     3.600000000    -1.280000000
C    -2.841000000     3.432000000    -0.925000000
C    -3.690000000     2.593000000    -1.733000000
H    -3.313000000     2.298000000    -2.709000000
C    -3.294000000     3.875000000     0.309000000
H    -2.658000000     4.553000000     0.872000000
O    -1.167000000     3.717000000    -2.729000000
H    -0.876000000     2.785000000    -0.752000000
C     1.574000000     4.394000000    -0.889000000
C     1.507000000     4.637000000    -2.455000000
H     2.511000000     4.941000000    -2.759000000
H     0.836000000     5.474000000    -2.661000000
C     1.161000000     3.250000000    -3.155000000
C     2.154000000     2.391000000    -3.585000000
H     3.200000000     2.595000000    -3.375000000
C    -0.194000000     2.893000000    -3.300000000
C    -0.490000000     1.719000000    -3.980000000
H    -1.536000000     1.478000000    -4.152000000
C     0.488000000     0.931000000    -4.592000000
O     0.091000000    -0.278000000    -5.109000000
C     0.205000000    -1.490000000    -4.255000000
C    -1.038000000    -2.417000000    -4.322000000
C    -2.290000000    -1.866000000    -4.728000000
H    -2.356000000    -0.863000000    -5.142000000
C    -0.944000000    -3.735000000    -3.899000000
H     0.003000000    -4.179000000    -3.602000000
O     1.384000000    -2.287000000    -4.438000000
H     0.308000000    -1.171000000    -3.207000000
C     1.838000000     1.211000000    -4.297000000
C     2.980000000     0.257000000    -4.724000000
H     3.798000000     0.944000000    -4.952000000
H     2.578000000    -0.193000000    -5.634000000
C     3.220000000    -0.829000000    -3.707000000
C     2.443000000    -1.994000000    -3.587000000
C     2.671000000    -2.827000000    -2.482000000
H     1.979000000    -3.648000000    -2.313000000
C     3.679000000    -2.569000000    -1.514000000
O     3.815000000    -3.386000000    -0.531000000
C     3.110000000    -2.908000000     0.640000000
H     2.470000000    -2.047000000     0.399000000
C     2.213000000    -3.992000000     1.344000000
C     1.699000000    -3.839000000     2.634000000
H     1.899000000    -2.928000000     3.192000000
C     1.848000000    -5.178000000     0.634000000
H     2.263000000    -5.296000000    -0.364000000
C     0.871000000    -6.035000000     1.157000000
O     0.379000000    -7.098000000     0.512000000
C     0.596000000    -5.930000000     2.476000000
H    -0.077000000    -6.673000000     2.894000000
C     0.958000000    -4.848000000     3.246000000
O     0.392000000    -4.664000000     4.459000000
C     0.697000000    -3.613000000     5.322000000
C    -0.259000000    -2.602000000     5.613000000
H    -1.183000000    -2.531000000     5.046000000
C     1.870000000    -3.557000000     5.979000000
H     2.531000000    -4.398000000     5.787000000
C     2.181000000    -2.573000000     6.872000000
H     3.197000000    -2.491000000     7.252000000
C     1.277000000    -1.586000000     7.187000000
H     1.615000000    -0.717000000     7.745000000
C     0.053000000    -1.610000000     6.550000000
O    -0.721000000    -0.522000000     6.671000000
C    -0.635000000     0.615000000     5.912000000
C    -1.555000000     1.630000000     6.130000000
H    -2.341000000     1.450000000     6.859000000
C    -1.500000000     2.873000000     5.551000000
O    -2.481000000     3.838000000     5.838000000
C    -3.033000000     4.625000000     4.877000000
C    -3.850000000     4.035000000     3.939000000
H    -4.041000000     2.965000000     3.907000000
C    -2.680000000     6.005000000     4.718000000
H    -1.983000000     6.383000000     5.461000000
C    -3.416000000     6.790000000     3.837000000
H    -3.278000000     7.860000000     3.702000000
C    -4.229000000     6.161000000     2.909000000
H    -4.715000000     6.717000000     2.112000000
C    -4.350000000     4.750000000     2.878000000
O    -5.103000000     4.189000000     1.872000000
C    -4.637000000     3.625000000     0.729000000
C    -5.493000000     2.855000000    -0.109000000
H    -6.531000000     2.737000000     0.192000000
C    -5.001000000     2.369000000    -1.303000000
O    -5.782000000     1.404000000    -1.901000000
C    -5.605000000     0.902000000    -3.124000000
C    -5.226000000    -0.403000000    -3.410000000
H    -5.154000000    -1.104000000    -2.582000000
C    -5.859000000     1.771000000    -4.210000000
H    -6.091000000     2.822000000    -4.058000000
C    -5.614000000     1.396000000    -5.550000000
H    -5.744000000     2.173000000    -6.299000000
C    -5.203000000     0.083000000    -5.795000000
H    -5.059000000    -0.384000000    -6.766000000
C    -5.016000000    -0.787000000    -4.705000000
O    -4.618000000    -2.129000000    -5.001000000
C    -3.445000000    -2.662000000    -4.628000000
C    -3.328000000    -3.953000000    -4.145000000
H    -4.250000000    -4.499000000    -3.963000000
C    -2.092000000    -4.436000000    -3.775000000
O    -1.998000000    -5.730000000    -3.375000000
C    -0.952000000    -6.235000000    -2.795000000
C    -0.028000000    -6.789000000    -3.634000000
H    -0.220000000    -6.829000000    -4.703000000
C     1.115000000    -7.455000000    -3.110000000
H     1.861000000    -7.905000000    -3.760000000
C     1.268000000    -7.567000000    -1.753000000
H     2.148000000    -8.016000000    -1.299000000
C     0.289000000    -7.012000000    -0.867000000
C    -0.839000000    -6.344000000    -1.378000000
H    -1.564000000    -5.901000000    -0.699000000
C    -0.734000000    -1.595000000    -0.477000000
H    -0.685000000    -2.531000000    -1.028000000
C     0.250000000    -0.604000000    -0.662000000
H     1.083000000    -0.990000000    -1.244000000
C     0.144000000     0.590000000     0.023000000
H     0.890000000     1.369000000    -0.040000000
C    -1.000000000     0.867000000     0.862000000
H    -1.077000000     1.750000000     1.491000000
C    -1.992000000    -0.101000000     0.873000000
H    -2.898000000     0.046000000     1.455000000
C    -1.892000000    -1.380000000     0.235000000
C    -2.953000000    -2.429000000     0.256000000
O    -4.073000000    -2.188000000     0.638000000
O    -2.645000000    -3.642000000     0.193000000
O    -5.959000000    -0.388000000     0.241000000
H    -5.220000000    -0.973000000     0.413000000
H    -6.428000000    -0.803000000    -0.483000000
O    -2.936000000    -4.561000000     5.561000000
H    -3.409000000    -3.789000000     5.871000000
H    -2.581000000    -4.300000000     4.712000000
O    -9.058000000    -4.579000000     1.010000000
H    -8.213000000    -4.760000000     0.598000000
H    -9.608000000    -5.323000000     0.765000000
O    -2.174000000    -8.445000000     2.380000000
H    -3.105000000    -8.667000000     2.408000000
H    -1.861000000    -8.614000000     3.269000000
O    -2.074000000    -4.345000000     2.679000000
H    -2.408000000    -4.222000000     1.790000000
H    -1.145000000    -4.124000000     2.619000000
O    -6.444000000    -3.135000000    -0.521000000
H    -5.648000000    -2.752000000    -0.153000000
H    -6.278000000    -4.078000000    -0.521000000
O    -6.782000000    -5.972000000     0.064000000
H    -5.979000000    -6.077000000    -0.447000000
H    -6.842000000    -6.774000000     0.583000000
O    -6.798000000     1.164000000     2.325000000
H    -6.695000000     0.677000000     1.507000000
H    -5.927000000     1.151000000     2.722000000
O    -8.890000000    -0.394000000    -1.381000000
H    -8.171000000     0.218000000    -1.534000000
H    -9.412000000     0.017000000    -0.692000000
O    -6.571000000    -3.807000000    -4.631000000
H    -7.028000000    -3.423000000    -3.883000000
H    -6.066000000    -3.083000000    -5.001000000
O    -3.801000000    -1.736000000     3.637000000
H    -3.387000000    -2.542000000     3.947000000
H    -4.114000000    -1.950000000     2.758000000
O    -4.619000000    -2.917000000     6.734000000
H    -5.411000000    -3.079000000     7.247000000
H    -4.602000000    -1.968000000     6.613000000
O    -4.526000000    -5.239000000    -1.079000000
H    -3.962000000    -4.915000000    -0.377000000
H    -4.233000000    -4.767000000    -1.859000000
O    -7.121000000    -2.943000000     2.732000000
H    -6.175000000    -3.018000000     2.608000000
H    -7.494000000    -3.211000000     1.893000000
O    -7.129000000    -2.613000000     5.615000000
H    -7.552000000    -3.414000000     5.926000000
H    -7.101000000    -2.711000000     4.663000000
O    -4.889000000     0.684000000     4.549000000
H    -4.651000000    -0.182000000     4.218000000
H    -5.479000000     0.506000000     5.281000000
O    -5.028000000    -7.876000000    -2.510000000
H    -4.771000000    -7.133000000    -1.963000000
H    -5.053000000    -8.619000000    -1.907000000
O    -4.746000000    -6.014000000     3.418000000
H    -3.811000000    -5.935000000     3.228000000
H    -5.178000000    -5.691000000     2.628000000
O    -7.974000000    -2.637000000    -2.672000000
H    -8.439000000    -1.874000000    -2.330000000
H    -7.489000000    -2.979000000    -1.920000000
