215
-1469.34260
C    -0.162000000     2.803000000     4.468000000
H     0.100000000     3.852000000     4.357000000
C     0.681000000     1.822000000     4.057000000
C     0.547000000     0.474000000     4.389000000
H     1.246000000    -0.294000000     4.068000000
C     1.771000000     2.184000000     3.018000000
O     1.935000000     3.591000000     2.945000000
H     1.500000000     1.760000000     2.040000000
O     3.057000000     1.582000000     3.498000000
C     3.883000000     1.113000000     2.562000000
C     3.948000000    -0.304000000     2.513000000
H     3.645000000    -0.881000000     3.383000000
C     4.536000000    -0.877000000     1.404000000
O     4.409000000    -2.287000000     1.459000000
C     4.926000000    -0.172000000     0.245000000
C     5.387000000    -0.818000000    -1.051000000
H     6.226000000    -0.300000000    -1.518000000
C     4.286000000    -1.267000000    -1.965000000
C     4.040000000    -0.537000000    -3.124000000
H     4.741000000     0.262000000    -3.354000000
H     5.872000000    -1.724000000    -0.682000000
C     4.794000000     1.224000000     0.311000000
H     5.168000000     1.732000000    -0.574000000
C     4.308000000     1.910000000     1.462000000
C     4.164000000     3.403000000     1.462000000
H     5.104000000     3.867000000     1.157000000
H     4.249000000     3.645000000     2.523000000
C     2.875000000     3.922000000     0.763000000
C     2.754000000     4.348000000    -0.561000000
H     3.538000000     4.247000000    -1.307000000
C     1.742000000     4.037000000     1.618000000
C     0.513000000     4.413000000     1.158000000
H    -0.355000000     4.325000000     1.806000000
C     0.383000000     4.755000000    -0.178000000
O    -0.902000000     4.888000000    -0.649000000
C    -1.456000000     3.718000000    -1.285000000
C    -2.823000000     3.427000000    -0.751000000
C    -3.510000000     2.314000000    -1.283000000
H    -3.091000000     1.686000000    -2.066000000
C    -3.456000000     4.236000000     0.158000000
H    -2.890000000     5.047000000     0.609000000
O    -1.356000000     3.866000000    -2.730000000
H    -0.885000000     2.849000000    -0.925000000
C     1.476000000     4.715000000    -1.060000000
C     1.325000000     4.733000000    -2.530000000
H     2.245000000     5.086000000    -3.001000000
H     0.575000000     5.498000000    -2.741000000
C     0.979000000     3.370000000    -3.100000000
C     1.945000000     2.539000000    -3.688000000
H     3.003000000     2.753000000    -3.565000000
C    -0.366000000     3.038000000    -3.231000000
C    -0.659000000     1.817000000    -3.733000000
H    -1.731000000     1.634000000    -3.734000000
C     0.205000000     1.013000000    -4.382000000
O    -0.264000000    -0.197000000    -4.927000000
C    -0.101000000    -1.371000000    -4.104000000
C    -1.306000000    -2.257000000    -4.158000000
C    -2.531000000    -1.672000000    -4.403000000
H    -2.546000000    -0.597000000    -4.561000000
C    -1.199000000    -3.628000000    -3.819000000
H    -0.204000000    -4.005000000    -3.597000000
O     1.081000000    -2.157000000    -4.543000000
H     0.086000000    -1.107000000    -3.053000000
C     1.561000000     1.363000000    -4.323000000
C     2.571000000     0.460000000    -4.892000000
H     3.490000000     1.024000000    -5.065000000
H     2.300000000     0.059000000    -5.871000000
C     2.896000000    -0.705000000    -3.948000000
C     2.161000000    -1.914000000    -3.722000000
C     2.426000000    -2.708000000    -2.592000000
H     1.782000000    -3.553000000    -2.359000000
C     3.356000000    -2.275000000    -1.630000000
O     3.521000000    -3.088000000    -0.551000000
C     3.230000000    -2.735000000     0.772000000
H     2.506000000    -1.907000000     0.767000000
C     2.601000000    -3.937000000     1.419000000
C     2.658000000    -4.082000000     2.786000000
H     3.223000000    -3.355000000     3.364000000
C     1.715000000    -4.739000000     0.684000000
H     1.502000000    -4.613000000    -0.374000000
C     1.224000000    -5.882000000     1.291000000
O     0.493000000    -6.741000000     0.540000000
C     1.339000000    -6.043000000     2.665000000
H     0.848000000    -6.892000000     3.134000000
C     2.017000000    -5.133000000     3.411000000
O     1.857000000    -5.235000000     4.777000000
C     1.572000000    -4.071000000     5.454000000
C     0.456000000    -3.270000000     5.193000000
H    -0.340000000    -3.565000000     4.514000000
C     2.410000000    -3.711000000     6.519000000
H     3.182000000    -4.372000000     6.903000000
C     2.209000000    -2.447000000     7.110000000
H     2.893000000    -2.132000000     7.894000000
C     1.198000000    -1.603000000     6.750000000
H     1.083000000    -0.622000000     7.204000000
C     0.288000000    -2.037000000     5.748000000
O    -0.838000000    -1.204000000     5.364000000
C    -0.623000000     0.114000000     5.098000000
C    -1.523000000     1.089000000     5.442000000
H    -2.313000000     0.855000000     6.151000000
C    -1.303000000     2.421000000     5.189000000
O    -2.197000000     3.385000000     5.636000000
C    -2.894000000     4.339000000     4.805000000
C    -3.604000000     3.976000000     3.636000000
H    -3.743000000     2.925000000     3.396000000
C    -2.930000000     5.712000000     5.161000000
H    -2.496000000     6.014000000     6.111000000
C    -3.640000000     6.628000000     4.430000000
H    -3.775000000     7.648000000     4.780000000
C    -4.284000000     6.235000000     3.302000000
H    -4.885000000     6.963000000     2.763000000
C    -4.261000000     4.939000000     2.888000000
O    -5.169000000     4.560000000     1.860000000
C    -4.663000000     3.886000000     0.785000000
C    -5.415000000     2.832000000     0.206000000
H    -6.476000000     2.673000000     0.380000000
C    -4.801000000     2.086000000    -0.821000000
O    -5.557000000     1.108000000    -1.424000000
C    -5.671000000     0.721000000    -2.717000000
C    -5.193000000    -0.499000000    -3.168000000
H    -4.810000000    -1.223000000    -2.452000000
C    -6.065000000     1.693000000    -3.626000000
H    -6.183000000     2.703000000    -3.240000000
C    -6.296000000     1.323000000    -4.948000000
H    -6.726000000     2.054000000    -5.627000000
C    -5.927000000     0.007000000    -5.342000000
H    -6.023000000    -0.288000000    -6.384000000
C    -5.325000000    -0.865000000    -4.502000000
O    -4.858000000    -2.133000000    -4.931000000
C    -3.637000000    -2.520000000    -4.563000000
C    -3.589000000    -3.846000000    -4.079000000
H    -4.466000000    -4.474000000    -3.947000000
C    -2.316000000    -4.388000000    -3.686000000
O    -2.190000000    -5.679000000    -3.250000000
C    -1.014000000    -6.236000000    -2.770000000
C    -0.063000000    -6.753000000    -3.632000000
H    -0.175000000    -6.594000000    -4.702000000
C     1.124000000    -7.232000000    -3.083000000
H     1.942000000    -7.559000000    -3.719000000
C     1.291000000    -7.230000000    -1.663000000
H     2.189000000    -7.716000000    -1.290000000
C     0.290000000    -6.806000000    -0.803000000
C    -0.885000000    -6.306000000    -1.400000000
H    -1.654000000    -5.974000000    -0.707000000
C    -1.768000000    -1.506000000    -0.133000000
H    -2.076000000    -2.450000000    -0.573000000
C    -0.503000000    -0.997000000    -0.466000000
H     0.176000000    -1.592000000    -1.071000000
C    -0.118000000     0.241000000     0.049000000
H     0.898000000     0.576000000    -0.127000000
C    -1.040000000     0.946000000     0.867000000
H    -0.739000000     1.885000000     1.325000000
C    -2.305000000     0.435000000     1.113000000
H    -2.957000000     1.047000000     1.732000000
C    -2.764000000    -0.782000000     0.609000000
C    -4.248000000    -1.188000000     0.806000000
O    -4.935000000    -0.391000000     1.407000000
O    -4.602000000    -2.315000000     0.485000000
O    -5.406000000     1.158000000     3.439000000
H    -5.351000000     0.590000000     2.671000000
H    -5.467000000     0.555000000     4.180000000
O    -1.305000000    -6.009000000     4.512000000
H    -1.967000000    -5.594000000     5.065000000
H    -1.440000000    -5.623000000     3.647000000
O    -7.362000000    -5.633000000    -0.159000000
H    -6.864000000    -5.953000000     0.593000000
H    -8.182000000    -6.126000000    -0.131000000
O    -7.919000000     3.748000000     3.009000000
H    -7.919000000     2.806000000     2.841000000
H    -6.997000000     3.999000000     2.966000000
O    -9.641000000     2.827000000     0.096000000
H    -9.146000000     2.479000000     0.838000000
H    -9.019000000     2.820000000    -0.631000000
O    -1.639000000    -5.422000000     1.961000000
H    -1.060000000    -6.142000000     1.714000000
H    -2.400000000    -5.519000000     1.388000000
O    -8.878000000    -0.802000000     4.210000000
H    -8.566000000    -0.518000000     5.070000000
H    -8.096000000    -0.798000000     3.658000000
O    -9.882000000    -3.554000000     4.244000000
H    -9.337000000    -2.789000000     4.055000000
H    -9.346000000    -4.090000000     4.828000000
O    -7.133000000    -3.125000000    -0.583000000
H    -6.271000000    -2.942000000    -0.209000000
H    -7.213000000    -4.078000000    -0.545000000
O    -5.532000000    -6.811000000     1.367000000
H    -5.603000000    -7.766000000     1.358000000
H    -5.294000000    -6.598000000     2.269000000
O    -7.900000000     1.172000000     1.534000000
H    -7.047000000     1.223000000     1.965000000
H    -8.028000000     0.239000000     1.367000000
O    -9.620000000     0.638000000    -2.341000000
H    -9.053000000     1.409000000    -2.329000000
H   -10.296000000     0.828000000    -1.691000000
O    -3.558000000    -3.506000000     2.820000000
H    -3.828000000    -3.104000000     1.994000000
H    -2.933000000    -4.184000000     2.563000000
O    -2.900000000    -3.338000000     5.392000000
H    -2.061000000    -2.878000000     5.356000000
H    -3.197000000    -3.366000000     4.482000000
O    -3.972000000    -4.992000000     0.335000000
H    -4.392000000    -4.180000000     0.051000000
H    -4.699000000    -5.593000000     0.498000000
O    -7.261000000    -1.655000000     1.856000000
H    -6.390000000    -1.300000000     1.683000000
H    -7.354000000    -2.375000000     1.232000000
O    -5.379000000    -0.748000000     5.402000000
H    -4.422000000    -0.723000000     5.409000000
H    -5.623000000    -0.825000000     6.324000000
O    -5.066000000    -5.536000000     4.214000000
H    -4.781000000    -4.646000000     4.008000000
H    -4.908000000    -5.626000000     5.154000000
O    -9.592000000    -2.139000000    -1.335000000
H    -9.385000000    -1.289000000    -1.724000000
H    -8.739000000    -2.536000000    -1.159000000
