215
-1481.87957
C    -0.631000000     2.715000000     3.955000000
H    -0.805000000     3.425000000     3.151000000
C     0.589000000     2.050000000     4.014000000
C     0.739000000     1.103000000     4.999000000
H     1.703000000     0.615000000     5.117000000
C     1.706000000     2.323000000     3.028000000
O     1.864000000     3.737000000     2.749000000
H     1.382000000     1.752000000     2.146000000
O     2.972000000     1.891000000     3.380000000
C     3.650000000     1.117000000     2.499000000
C     3.464000000    -0.248000000     2.615000000
H     2.864000000    -0.670000000     3.418000000
C     4.168000000    -1.021000000     1.635000000
O     3.992000000    -2.339000000     1.685000000
C     4.823000000    -0.502000000     0.502000000
C     5.323000000    -1.334000000    -0.701000000
H     6.201000000    -0.933000000    -1.212000000
C     4.182000000    -1.603000000    -1.641000000
C     4.066000000    -0.773000000    -2.765000000
H     4.754000000     0.047000000    -2.955000000
H     5.689000000    -2.260000000    -0.253000000
C     4.991000000     0.934000000     0.424000000
H     5.613000000     1.414000000    -0.327000000
C     4.397000000     1.708000000     1.432000000
C     4.410000000     3.243000000     1.400000000
H     5.244000000     3.592000000     0.787000000
H     4.534000000     3.728000000     2.370000000
C     3.166000000     3.770000000     0.703000000
C     3.086000000     3.916000000    -0.663000000
H     3.972000000     3.787000000    -1.280000000
C     1.993000000     4.094000000     1.447000000
C     0.823000000     4.631000000     0.801000000
H    -0.011000000     4.815000000     1.473000000
C     0.720000000     4.631000000    -0.580000000
O    -0.478000000     5.011000000    -1.115000000
C    -1.226000000     3.958000000    -1.778000000
C    -2.691000000     3.933000000    -1.407000000
C    -3.354000000     2.842000000    -1.857000000
H    -2.828000000     2.080000000    -2.425000000
C    -3.258000000     4.863000000    -0.557000000
H    -2.695000000     5.643000000    -0.052000000
O    -0.972000000     3.891000000    -3.174000000
H    -0.953000000     3.033000000    -1.249000000
C     1.915000000     4.301000000    -1.322000000
C     1.947000000     4.392000000    -2.861000000
H     3.009000000     4.496000000    -3.097000000
H     1.435000000     5.304000000    -3.173000000
C     1.362000000     3.134000000    -3.486000000
C     2.226000000     2.131000000    -3.863000000
H     3.304000000     2.150000000    -3.723000000
C    -0.030000000     2.948000000    -3.635000000
C    -0.529000000     1.739000000    -4.077000000
H    -1.590000000     1.523000000    -4.175000000
C     0.365000000     0.770000000    -4.366000000
O    -0.222000000    -0.461000000    -4.700000000
C    -0.104000000    -1.662000000    -3.886000000
C    -1.326000000    -2.551000000    -3.982000000
C    -2.510000000    -2.014000000    -4.525000000
H    -2.613000000    -1.020000000    -4.952000000
C    -1.372000000    -3.821000000    -3.438000000
H    -0.406000000    -4.173000000    -3.083000000
O     1.075000000    -2.435000000    -4.274000000
H     0.040000000    -1.363000000    -2.837000000
C     1.756000000     0.946000000    -4.387000000
C     2.715000000    -0.180000000    -4.817000000
H     3.639000000     0.329000000    -5.097000000
H     2.368000000    -0.726000000    -5.697000000
C     3.041000000    -1.095000000    -3.663000000
C     2.213000000    -2.196000000    -3.500000000
C     2.410000000    -3.067000000    -2.415000000
H     1.722000000    -3.885000000    -2.212000000
C     3.450000000    -2.805000000    -1.503000000
O     3.484000000    -3.486000000    -0.304000000
C     2.914000000    -2.901000000     0.862000000
H     2.247000000    -2.058000000     0.628000000
C     1.990000000    -3.823000000     1.630000000
C     2.047000000    -3.809000000     3.019000000
H     2.653000000    -3.056000000     3.517000000
C     1.090000000    -4.714000000     0.969000000
H     0.900000000    -4.646000000    -0.099000000
C     0.242000000    -5.558000000     1.801000000
O    -0.476000000    -6.563000000     1.252000000
C     0.313000000    -5.451000000     3.172000000
H    -0.280000000    -6.048000000     3.860000000
C     1.143000000    -4.575000000     3.759000000
O     1.090000000    -4.474000000     5.063000000
C     1.371000000    -3.303000000     5.815000000
C     0.495000000    -2.239000000     5.831000000
H    -0.387000000    -2.195000000     5.198000000
C     2.511000000    -3.350000000     6.569000000
H     3.173000000    -4.211000000     6.514000000
C     2.814000000    -2.310000000     7.426000000
H     3.724000000    -2.405000000     8.013000000
C     1.878000000    -1.260000000     7.474000000
H     2.114000000    -0.438000000     8.145000000
C     0.734000000    -1.200000000     6.690000000
O    -0.200000000    -0.220000000     6.770000000
C    -0.286000000     0.804000000     5.842000000
C    -1.491000000     1.567000000     5.876000000
H    -2.267000000     1.421000000     6.623000000
C    -1.646000000     2.571000000     4.913000000
O    -2.905000000     3.096000000     4.901000000
C    -3.166000000     4.203000000     4.170000000
C    -3.851000000     4.088000000     2.935000000
H    -4.190000000     3.116000000     2.587000000
C    -2.668000000     5.449000000     4.585000000
H    -2.138000000     5.560000000     5.528000000
C    -3.017000000     6.540000000     3.828000000
H    -2.715000000     7.528000000     4.166000000
C    -3.779000000     6.469000000     2.720000000
H    -4.111000000     7.396000000     2.261000000
C    -4.188000000     5.241000000     2.194000000
O    -4.998000000     5.187000000     1.029000000
C    -4.516000000     4.583000000    -0.105000000
C    -5.271000000     3.529000000    -0.569000000
H    -6.288000000     3.319000000    -0.249000000
C    -4.699000000     2.625000000    -1.509000000
O    -5.379000000     1.506000000    -1.923000000
C    -5.367000000     1.019000000    -3.236000000
C    -5.221000000    -0.353000000    -3.449000000
H    -5.136000000    -1.082000000    -2.647000000
C    -5.475000000     1.899000000    -4.355000000
H    -5.660000000     2.954000000    -4.167000000
C    -5.460000000     1.407000000    -5.666000000
H    -5.448000000     2.037000000    -6.552000000
C    -5.263000000     0.037000000    -5.911000000
H    -5.187000000    -0.377000000    -6.913000000
C    -5.112000000    -0.820000000    -4.750000000
O    -4.853000000    -2.168000000    -4.948000000
C    -3.708000000    -2.745000000    -4.469000000
C    -3.714000000    -4.033000000    -3.940000000
H    -4.600000000    -4.646000000    -3.798000000
C    -2.519000000    -4.621000000    -3.489000000
O    -2.532000000    -5.917000000    -2.954000000
C    -1.543000000    -6.437000000    -2.244000000
C    -0.833000000    -7.483000000    -2.719000000
H    -0.886000000    -7.765000000    -3.767000000
C     0.136000000    -8.143000000    -1.981000000
H     0.817000000    -8.851000000    -2.446000000
C     0.260000000    -7.862000000    -0.609000000
H     0.911000000    -8.333000000     0.122000000
C    -0.590000000    -6.898000000    -0.091000000
C    -1.411000000    -6.174000000    -0.895000000
H    -2.071000000    -5.411000000    -0.490000000
C    -1.747000000    -1.578000000    -0.459000000
H    -1.971000000    -2.622000000    -0.662000000
C    -0.447000000    -1.149000000    -0.250000000
H     0.428000000    -1.774000000    -0.409000000
C    -0.215000000     0.224000000     0.045000000
H     0.739000000     0.654000000     0.149000000
C    -1.314000000     1.126000000     0.249000000
H    -1.197000000     2.175000000     0.505000000
C    -2.565000000     0.571000000     0.173000000
H    -3.325000000     1.288000000     0.474000000
C    -2.823000000    -0.721000000    -0.215000000
C    -4.220000000    -1.250000000    -0.117000000
O    -5.222000000    -0.601000000     0.209000000
O    -4.454000000    -2.359000000    -0.589000000
O    -6.153000000     1.097000000     1.854000000
H    -5.797000000     0.607000000     1.113000000
H    -6.795000000     0.505000000     2.247000000
O    -9.011000000    -4.884000000     0.912000000
H    -8.955000000    -5.337000000     1.754000000
H    -8.318000000    -4.225000000     0.948000000
O    -2.070000000    -4.392000000     5.444000000
H    -1.149000000    -4.476000000     5.196000000
H    -2.552000000    -4.580000000     4.639000000
O    -6.969000000     3.495000000     3.080000000
H    -6.721000000     2.618000000     2.788000000
H    -6.197000000     4.034000000     2.901000000
O    -3.511000000    -5.298000000     3.241000000
H    -3.907000000    -6.168000000     3.293000000
H    -3.490000000    -5.100000000     2.304000000
O    -9.244000000    -1.326000000     1.971000000
H    -8.617000000    -1.089000000     2.655000000
H    -8.712000000    -1.415000000     1.180000000
O    -6.656000000    -3.564000000    -1.812000000
H    -7.172000000    -3.518000000    -1.007000000
H    -5.904000000    -2.995000000    -1.648000000
O    -7.492000000    -4.670000000     4.227000000
H    -6.745000000    -4.206000000     3.849000000
H    -7.360000000    -4.606000000     5.173000000
O    -7.917000000    -1.122000000    -0.281000000
H    -8.156000000    -0.441000000    -0.910000000
H    -6.962000000    -1.076000000    -0.231000000
O   -11.009000000    -0.022000000     0.229000000
H   -10.805000000     0.903000000     0.369000000
H   -10.273000000    -0.492000000     0.619000000
O    -6.352000000    -6.173000000    -0.692000000
H    -6.552000000    -5.736000000     0.136000000
H    -6.668000000    -5.569000000    -1.364000000
O    -1.375000000    -0.904000000     2.953000000
H    -1.247000000    -0.005000000     3.253000000
H    -1.091000000    -0.894000000     2.038000000
O    -4.069000000    -0.933000000     3.916000000
H    -3.977000000    -0.415000000     3.116000000
H    -3.205000000    -0.893000000     4.328000000
O    -8.391000000     1.220000000    -2.111000000
H    -7.551000000     1.677000000    -2.160000000
H    -9.034000000     1.914000000    -1.968000000
O    -4.020000000    -4.672000000     0.706000000
H    -4.055000000    -3.813000000     0.284000000
H    -4.379000000    -5.273000000     0.053000000
O    -6.471000000    -3.388000000     0.931000000
H    -5.828000000    -2.792000000     0.546000000
H    -6.399000000    -3.240000000     1.874000000
O    -8.509000000    -4.927000000    -3.256000000
H    -8.831000000    -5.518000000    -2.575000000
H    -7.870000000    -4.372000000    -2.809000000
O    -7.483000000    -0.793000000     4.016000000
H    -8.030000000    -1.176000000     4.702000000
H    -6.616000000    -1.173000000     4.160000000
O    -5.368000000    -3.218000000     3.494000000
H    -4.830000000    -4.008000000     3.439000000
H    -4.743000000    -2.514000000     3.669000000
