215
-1456.16079
C    -0.929000000     1.756000000     4.416000000
H    -1.137000000     2.581000000     3.740000000
C     0.378000000     1.348000000     4.481000000
C     0.645000000     0.186000000     5.203000000
H     1.662000000    -0.198000000     5.188000000
C     1.464000000     1.949000000     3.511000000
O     1.210000000     3.344000000     3.268000000
H     1.239000000     1.518000000     2.524000000
O     2.858000000     1.834000000     3.873000000
C     3.565000000     1.453000000     2.828000000
C     3.750000000     0.085000000     2.716000000
H     3.407000000    -0.526000000     3.547000000
C     4.314000000    -0.513000000     1.600000000
O     4.237000000    -1.901000000     1.500000000
C     4.819000000     0.297000000     0.547000000
C     5.542000000    -0.323000000    -0.625000000
H     6.364000000     0.336000000    -0.913000000
C     4.557000000    -0.658000000    -1.703000000
C     4.162000000     0.310000000    -2.611000000
H     4.351000000     1.377000000    -2.522000000
H     6.056000000    -1.263000000    -0.411000000
C     4.636000000     1.669000000     0.666000000
H     4.953000000     2.326000000    -0.140000000
C     3.985000000     2.250000000     1.792000000
C     3.786000000     3.777000000     1.881000000
H     4.588000000     4.262000000     1.320000000
H     3.969000000     4.066000000     2.918000000
C     2.381000000     4.086000000     1.325000000
C     2.335000000     4.570000000     0.036000000
H     3.289000000     4.543000000    -0.483000000
C     1.183000000     3.746000000     2.010000000
C     0.007000000     4.059000000     1.373000000
H    -0.957000000     3.935000000     1.860000000
C    -0.027000000     4.537000000     0.096000000
O    -1.270000000     4.822000000    -0.374000000
C    -1.919000000     3.855000000    -1.196000000
C    -3.330000000     3.567000000    -0.824000000
C    -3.987000000     2.597000000    -1.552000000
H    -3.452000000     2.021000000    -2.302000000
C    -3.888000000     4.175000000     0.300000000
H    -3.405000000     5.002000000     0.814000000
O    -1.803000000     4.206000000    -2.565000000
H    -1.460000000     2.881000000    -0.968000000
C     1.107000000     4.836000000    -0.613000000
C     1.009000000     5.279000000    -2.116000000
H     2.016000000     5.602000000    -2.390000000
H     0.183000000     5.987000000    -2.205000000
C     0.655000000     3.975000000    -2.869000000
C     1.646000000     3.265000000    -3.447000000
H     2.672000000     3.613000000    -3.368000000
C    -0.676000000     3.554000000    -3.077000000
C    -0.881000000     2.388000000    -3.790000000
H    -1.900000000     2.049000000    -3.958000000
C     0.186000000     1.617000000    -4.202000000
O    -0.121000000     0.402000000    -4.742000000
C     0.128000000    -0.823000000    -3.978000000
C    -0.916000000    -1.830000000    -4.280000000
C    -2.266000000    -1.492000000    -4.384000000
H    -2.528000000    -0.442000000    -4.288000000
C    -0.580000000    -3.164000000    -4.329000000
H     0.403000000    -3.611000000    -4.206000000
O     1.397000000    -1.385000000    -4.380000000
H     0.196000000    -0.631000000    -2.897000000
C     1.508000000     2.023000000    -3.984000000
C     2.726000000     1.241000000    -4.464000000
H     3.544000000     1.964000000    -4.492000000
H     2.687000000     0.850000000    -5.483000000
C     3.173000000     0.051000000    -3.510000000
C     2.508000000    -1.192000000    -3.608000000
C     2.874000000    -2.150000000    -2.675000000
H     2.270000000    -3.053000000    -2.642000000
C     3.824000000    -1.873000000    -1.670000000
O     3.957000000    -2.768000000    -0.655000000
C     3.306000000    -2.447000000     0.555000000
H     2.573000000    -1.652000000     0.351000000
C     2.580000000    -3.651000000     1.115000000
C     2.606000000    -3.987000000     2.504000000
H     3.175000000    -3.360000000     3.186000000
C     1.813000000    -4.483000000     0.238000000
H     1.815000000    -4.211000000    -0.814000000
C     1.005000000    -5.560000000     0.761000000
O     0.134000000    -6.326000000    -0.016000000
C     1.078000000    -5.833000000     2.128000000
H     0.463000000    -6.654000000     2.487000000
C     1.868000000    -5.019000000     2.990000000
O     1.984000000    -5.359000000     4.327000000
C     1.910000000    -4.455000000     5.360000000
C     0.985000000    -3.414000000     5.288000000
H     0.344000000    -3.342000000     4.413000000
C     2.788000000    -4.536000000     6.407000000
H     3.623000000    -5.217000000     6.553000000
C     2.751000000    -3.643000000     7.444000000
H     3.450000000    -3.657000000     8.276000000
C     1.723000000    -2.725000000     7.513000000
H     1.557000000    -2.084000000     8.375000000
C     0.894000000    -2.496000000     6.368000000
O    -0.209000000    -1.711000000     6.534000000
C    -0.368000000    -0.542000000     5.805000000
C    -1.635000000    -0.058000000     5.746000000
H    -2.418000000    -0.688000000     6.161000000
C    -1.964000000     1.051000000     4.969000000
O    -3.288000000     1.419000000     4.854000000
C    -3.763000000     2.703000000     4.527000000
C    -4.701000000     2.849000000     3.511000000
H    -4.977000000     1.947000000     2.971000000
C    -3.217000000     3.818000000     5.145000000
H    -2.478000000     3.765000000     5.940000000
C    -3.523000000     5.124000000     4.733000000
H    -3.136000000     6.036000000     5.181000000
C    -4.343000000     5.243000000     3.637000000
H    -4.543000000     6.240000000     3.254000000
C    -4.959000000     4.150000000     2.990000000
O    -5.658000000     4.324000000     1.799000000
C    -5.117000000     3.824000000     0.625000000
C    -5.853000000     2.873000000    -0.075000000
H    -6.828000000     2.545000000     0.277000000
C    -5.333000000     2.336000000    -1.235000000
O    -6.054000000     1.401000000    -1.980000000
C    -5.708000000     1.053000000    -3.261000000
C    -5.473000000    -0.281000000    -3.537000000
H    -5.404000000    -1.008000000    -2.732000000
C    -5.512000000     2.048000000    -4.285000000
H    -5.780000000     3.081000000    -4.076000000
C    -5.061000000     1.654000000    -5.557000000
H    -4.900000000     2.422000000    -6.309000000
C    -4.795000000     0.347000000    -5.798000000
H    -4.402000000     0.150000000    -6.792000000
C    -4.974000000    -0.672000000    -4.810000000
O    -4.543000000    -1.992000000    -5.017000000
C    -3.208000000    -2.405000000    -4.789000000
C    -2.885000000    -3.726000000    -4.850000000
H    -3.588000000    -4.489000000    -5.175000000
C    -1.577000000    -4.117000000    -4.552000000
O    -1.336000000    -5.532000000    -4.502000000
C    -0.390000000    -6.141000000    -3.680000000
C     0.537000000    -7.004000000    -4.140000000
H     0.545000000    -7.167000000    -5.215000000
C     1.425000000    -7.644000000    -3.241000000
H     2.236000000    -8.203000000    -3.701000000
C     1.243000000    -7.483000000    -1.856000000
H     1.956000000    -7.951000000    -1.182000000
C     0.299000000    -6.602000000    -1.368000000
C    -0.502000000    -5.919000000    -2.270000000
H    -1.204000000    -5.173000000    -1.905000000
C    -1.443000000    -1.175000000    -0.773000000
H    -1.333000000    -1.901000000    -1.575000000
C    -0.302000000    -0.505000000    -0.393000000
H     0.707000000    -0.816000000    -0.650000000
C    -0.421000000     0.514000000     0.505000000
H     0.477000000     1.023000000     0.853000000
C    -1.612000000     0.914000000     0.997000000
H    -1.613000000     1.798000000     1.631000000
C    -2.791000000     0.250000000     0.739000000
H    -3.727000000     0.501000000     1.231000000
C    -2.690000000    -0.835000000    -0.134000000
C    -3.888000000    -1.617000000    -0.447000000
O    -4.947000000    -1.434000000     0.103000000
O    -3.818000000    -2.640000000    -1.098000000
O    -6.094000000    -0.382000000     2.041000000
H    -5.685000000    -0.792000000     2.803000000
H    -5.777000000    -0.892000000     1.296000000
O    -2.819000000    -6.050000000     3.445000000
H    -3.449000000    -5.961000000     4.159000000
H    -2.274000000    -5.266000000     3.507000000
O    -1.364000000    -4.033000000     0.565000000
H    -0.705000000    -4.665000000     0.276000000
H    -2.196000000    -4.499000000     0.477000000
O    -5.780000000    -3.782000000    -2.566000000
H    -5.421000000    -3.363000000    -1.784000000
H    -5.160000000    -3.564000000    -3.262000000
O    -6.052000000    -3.726000000     1.367000000
H    -5.703000000    -4.544000000     1.015000000
H    -5.673000000    -3.045000000     0.812000000
O    -7.713000000    -0.594000000    -0.346000000
H    -7.633000000    -0.439000000     0.596000000
H    -6.811000000    -0.702000000    -0.648000000
O    -4.512000000    -7.733000000     1.752000000
H    -4.065000000    -7.212000000     1.086000000
H    -4.376000000    -7.250000000     2.567000000
O    -3.375000000    -7.301000000    -1.804000000
H    -3.249000000    -7.752000000    -2.638000000
H    -2.805000000    -7.766000000    -1.192000000
O    -6.400000000    -3.899000000    -6.251000000
H    -7.197000000    -3.864000000    -5.722000000
H    -5.788000000    -3.316000000    -5.802000000
O    -4.703000000    -2.293000000     3.415000000
H    -5.062000000    -2.713000000     2.633000000
H    -3.771000000    -2.185000000     3.222000000
O    -1.906000000    -2.251000000     2.644000000
H    -1.677000000    -1.372000000     2.340000000
H    -1.687000000    -2.823000000     1.908000000
O    -9.920000000    -2.258000000    -1.018000000
H    -9.958000000    -2.712000000    -0.177000000
H    -9.195000000    -1.640000000    -0.924000000
O    -8.882000000    -1.516000000    -3.622000000
H    -9.501000000    -1.987000000    -3.064000000
H    -8.556000000    -0.804000000    -3.071000000
O    -4.350000000    -5.156000000    -0.294000000
H    -4.134000000    -5.614000000    -1.106000000
H    -4.214000000    -4.230000000    -0.497000000
O    -8.868000000    -3.397000000     1.612000000
H    -8.874000000    -2.708000000     2.277000000
H    -7.986000000    -3.363000000     1.241000000
O    -9.844000000     1.120000000    -1.238000000
H    -8.930000000     0.849000000    -1.160000000
H    -9.989000000     1.691000000    -0.483000000
O    -8.308000000     1.064000000     2.586000000
H    -7.513000000     0.682000000     2.213000000
H    -8.710000000     0.348000000     3.077000000
O    -8.007000000    -5.637000000    -1.942000000
H    -7.346000000    -4.946000000    -1.910000000
H    -7.517000000    -6.445000000    -1.789000000
O    -6.696000000    -5.651000000     3.544000000
H    -6.815000000    -4.947000000     2.907000000
H    -7.530000000    -5.696000000     4.011000000
