215
-1456.04866
C     4.315000000     1.520000000    -2.169000000
H     4.587000000     0.784000000    -2.921000000
C     4.061000000     0.977000000    -0.894000000
C     3.975000000     1.861000000     0.169000000
H     3.860000000     1.429000000     1.159000000
C     3.965000000    -0.538000000    -0.531000000
O     4.576000000    -1.321000000    -1.630000000
H     2.909000000    -0.828000000    -0.427000000
O     4.632000000    -0.888000000     0.706000000
C     3.885000000    -1.625000000     1.550000000
C     3.556000000    -1.097000000     2.785000000
H     3.881000000    -0.114000000     3.118000000
C     2.677000000    -1.770000000     3.635000000
O     2.173000000    -1.097000000     4.714000000
C     2.141000000    -2.990000000     3.202000000
C     1.209000000    -3.740000000     4.077000000
H     1.411000000    -4.788000000     3.847000000
C    -0.245000000    -3.289000000     3.721000000
C    -0.918000000    -4.159000000     2.807000000
H    -0.448000000    -5.069000000     2.445000000
H     1.384000000    -3.591000000     5.145000000
C     2.718000000    -3.566000000     2.030000000
H     2.332000000    -4.532000000     1.712000000
C     3.605000000    -2.889000000     1.243000000
C     4.093000000    -3.624000000    -0.068000000
H     4.017000000    -4.684000000     0.182000000
H     5.152000000    -3.500000000    -0.303000000
C     3.302000000    -3.333000000    -1.297000000
C     2.152000000    -4.029000000    -1.613000000
H     1.905000000    -4.925000000    -1.049000000
C     3.679000000    -2.240000000    -2.094000000
C     2.823000000    -1.903000000    -3.141000000
H     3.088000000    -0.960000000    -3.613000000
C     1.643000000    -2.598000000    -3.435000000
O     0.851000000    -2.133000000    -4.442000000
C    -0.454000000    -1.609000000    -4.007000000
C    -0.749000000    -0.332000000    -4.805000000
C    -2.076000000     0.030000000    -5.143000000
H    -2.940000000    -0.515000000    -4.771000000
C     0.302000000     0.462000000    -5.302000000
H     1.329000000     0.252000000    -5.015000000
O    -1.526000000    -2.644000000    -4.075000000
H    -0.461000000    -1.220000000    -2.978000000
C     1.349000000    -3.729000000    -2.705000000
C     0.105000000    -4.596000000    -2.981000000
H     0.268000000    -5.652000000    -2.751000000
H    -0.093000000    -4.708000000    -4.048000000
C    -1.107000000    -4.104000000    -2.253000000
C    -1.486000000    -4.673000000    -1.098000000
H    -0.912000000    -5.446000000    -0.591000000
C    -2.001000000    -3.171000000    -2.920000000
C    -3.068000000    -2.652000000    -2.208000000
H    -3.613000000    -1.823000000    -2.650000000
C    -3.282000000    -3.034000000    -0.870000000
O    -4.247000000    -2.422000000    -0.055000000
C    -3.775000000    -1.436000000     0.946000000
C    -4.590000000    -0.142000000     0.776000000
C    -4.995000000     0.276000000    -0.488000000
H    -4.784000000    -0.292000000    -1.390000000
C    -4.696000000     0.761000000     1.855000000
H    -4.261000000     0.490000000     2.813000000
O    -3.883000000    -2.114000000     2.225000000
H    -2.755000000    -1.153000000     0.648000000
C    -2.504000000    -4.061000000    -0.360000000
C    -2.751000000    -4.617000000     1.060000000
H    -2.345000000    -5.627000000     0.980000000
H    -3.814000000    -4.787000000     1.247000000
C    -2.154000000    -3.819000000     2.240000000
C    -2.692000000    -2.574000000     2.674000000
C    -2.071000000    -1.776000000     3.648000000
H    -2.637000000    -0.889000000     3.918000000
C    -0.833000000    -2.115000000     4.154000000
O    -0.202000000    -1.244000000     5.010000000
C     0.870000000    -0.438000000     4.586000000
H     0.776000000    -0.413000000     3.491000000
C     0.773000000     0.942000000     5.115000000
C     1.945000000     1.775000000     5.271000000
H     2.895000000     1.308000000     5.023000000
C    -0.450000000     1.555000000     5.256000000
H    -1.382000000     1.061000000     4.991000000
C    -0.527000000     2.871000000     5.626000000
O    -1.750000000     3.493000000     5.843000000
C     0.592000000     3.663000000     5.874000000
H     0.363000000     4.659000000     6.243000000
C     1.868000000     3.137000000     5.605000000
O     2.990000000     3.908000000     5.475000000
C     3.935000000     3.762000000     4.484000000
C     3.535000000     3.906000000     3.172000000
H     2.475000000     3.943000000     2.936000000
C     5.280000000     3.579000000     4.804000000
H     5.576000000     3.349000000     5.824000000
C     6.240000000     3.661000000     3.762000000
H     7.285000000     3.440000000     3.962000000
C     5.812000000     3.929000000     2.435000000
H     6.528000000     3.895000000     1.617000000
C     4.460000000     4.039000000     2.158000000
O     4.051000000     4.277000000     0.854000000
C     4.015000000     3.241000000    -0.094000000
C     4.264000000     3.770000000    -1.371000000
H     4.277000000     4.832000000    -1.603000000
C     4.387000000     2.881000000    -2.413000000
O     4.684000000     3.401000000    -3.640000000
C     4.106000000     2.834000000    -4.746000000
C     2.763000000     2.948000000    -5.024000000
H     2.140000000     3.403000000    -4.259000000
C     4.984000000     2.116000000    -5.520000000
H     6.020000000     2.102000000    -5.192000000
C     4.492000000     1.445000000    -6.654000000
H     5.252000000     0.909000000    -7.216000000
C     3.155000000     1.562000000    -6.957000000
H     2.846000000     0.970000000    -7.815000000
C     2.294000000     2.368000000    -6.193000000
O     1.022000000     2.382000000    -6.558000000
C     0.045000000     1.573000000    -6.071000000
C    -1.232000000     1.901000000    -6.411000000
H    -1.305000000     2.829000000    -6.974000000
C    -2.314000000     1.219000000    -5.906000000
O    -3.579000000     1.698000000    -5.980000000
C    -4.529000000     1.225000000    -5.067000000
C    -4.695000000     1.743000000    -3.816000000
H    -3.993000000     2.507000000    -3.493000000
C    -5.337000000     0.147000000    -5.479000000
H    -5.272000000    -0.236000000    -6.494000000
C    -6.403000000    -0.272000000    -4.698000000
H    -6.882000000    -1.178000000    -5.059000000
C    -6.574000000     0.269000000    -3.368000000
H    -7.356000000     0.010000000    -2.659000000
C    -5.769000000     1.320000000    -3.060000000
O    -5.969000000     1.993000000    -1.919000000
C    -5.600000000     1.523000000    -0.664000000
C    -5.847000000     2.334000000     0.406000000
H    -6.410000000     3.248000000     0.228000000
C    -5.327000000     2.014000000     1.625000000
O    -5.414000000     2.844000000     2.704000000
C    -4.873000000     2.680000000     3.978000000
C    -5.557000000     1.945000000     4.903000000
H    -6.557000000     1.536000000     4.783000000
C    -4.906000000     1.647000000     6.147000000
H    -5.289000000     0.975000000     6.912000000
C    -3.709000000     2.240000000     6.436000000
H    -3.161000000     2.034000000     7.352000000
C    -2.932000000     2.906000000     5.450000000
C    -3.575000000     3.156000000     4.196000000
H    -2.999000000     3.661000000     3.424000000
C    -1.547000000     0.966000000    -0.911000000
H    -2.335000000     0.965000000    -1.659000000
C    -0.679000000    -0.151000000    -0.586000000
H    -0.657000000    -1.097000000    -1.119000000
C     0.187000000    -0.130000000     0.466000000
H     0.715000000    -1.079000000     0.655000000
C     0.246000000     1.030000000     1.266000000
H     0.969000000     1.043000000     2.077000000
C    -0.605000000     2.110000000     1.066000000
H    -0.735000000     2.927000000     1.771000000
C    -1.469000000     2.124000000    -0.036000000
C    -2.446000000     3.275000000    -0.257000000
O    -2.900000000     4.011000000     0.567000000
O    -2.662000000     3.528000000    -1.445000000
O    -2.252000000     8.554000000    -0.582000000
H    -1.539000000     9.187000000    -0.673000000
H    -2.143000000     8.198000000     0.300000000
O    -2.730000000     7.225000000    -3.012000000
H    -3.686000000     7.256000000    -3.027000000
H    -2.494000000     7.532000000    -2.137000000
O    -4.274000000     6.452000000     0.260000000
H    -3.745000000     5.657000000     0.323000000
H    -4.906000000     6.376000000     0.976000000
O    -5.384000000     6.952000000    -3.843000000
H    -6.143000000     7.089000000    -4.410000000
H    -5.559000000     6.118000000    -3.406000000
O    -2.188000000     4.946000000    -4.041000000
H    -2.448000000     5.754000000    -3.598000000
H    -2.226000000     4.276000000    -3.359000000
O    -0.358000000     5.480000000    -6.096000000
H    -0.599000000     4.715000000    -5.574000000
H    -0.311000000     6.197000000    -5.463000000
O     2.843000000     7.189000000    -1.171000000
H     2.361000000     6.678000000    -1.821000000
H     2.252000000     7.907000000    -0.944000000
O     1.127000000     7.425000000     1.591000000
H     2.018000000     7.504000000     1.250000000
H     0.817000000     6.583000000     1.258000000
O    -8.885000000     1.541000000    -1.392000000
H    -8.151000000     2.121000000    -1.188000000
H    -9.231000000     1.875000000    -2.220000000
O    -6.215000000     6.073000000     1.837000000
H    -6.589000000     5.623000000     2.595000000
H    -6.974000000     6.390000000     1.348000000
O    -4.978000000     4.693000000    -2.004000000
H    -4.284000000     4.064000000    -1.805000000
H    -4.912000000     5.349000000    -1.309000000
O     1.161000000     5.795000000    -3.108000000
H     0.400000000     6.154000000    -3.565000000
H     0.847000000     4.975000000    -2.729000000
O    -1.074000000     5.899000000     0.678000000
H    -1.510000000     6.179000000    -0.127000000
H    -1.505000000     5.076000000     0.909000000
O    -1.329000000     8.349000000     2.101000000
H    -0.430000000     8.592000000     2.319000000
H    -1.272000000     7.429000000     1.843000000
O    -5.305000000     4.508000000    -6.492000000
H    -5.125000000     4.968000000    -5.672000000
H    -4.441000000     4.260000000    -6.822000000
O    -0.214000000     8.108000000    -4.137000000
H    -0.570000000     8.777000000    -4.723000000
H    -0.960000000     7.835000000    -3.605000000
O    -7.518000000     4.632000000    -3.077000000
H    -7.469000000     3.935000000    -3.731000000
H    -6.878000000     4.382000000    -2.411000000
O    -5.064000000     9.173000000     0.219000000
H    -5.200000000     8.755000000     1.069000000
H    -4.431000000     8.611000000    -0.226000000
O     0.095000000     3.761000000    -2.163000000
H    -0.781000000     3.381000000    -2.225000000
H     0.496000000     3.319000000    -1.415000000
