215
-1436.27412
C    -1.742000000     1.247000000     4.614000000
H    -2.258000000     1.804000000     3.837000000
C    -0.378000000     1.410000000     4.661000000
C     0.343000000     0.487000000     5.405000000
H     1.427000000     0.561000000     5.423000000
C     0.249000000     2.336000000     3.565000000
O    -0.356000000     3.640000000     3.523000000
H     0.047000000     1.858000000     2.595000000
O     1.700000000     2.429000000     3.869000000
C     2.635000000     2.385000000     2.777000000
C     3.434000000     1.311000000     2.712000000
H     3.396000000     0.516000000     3.453000000
C     4.329000000     1.018000000     1.635000000
O     4.871000000    -0.259000000     1.464000000
C     4.337000000     1.996000000     0.623000000
C     5.216000000     1.793000000    -0.616000000
H     5.627000000     2.729000000    -1.002000000
C     4.550000000     1.130000000    -1.816000000
C     3.889000000     1.811000000    -2.819000000
H     3.994000000     2.891000000    -2.759000000
H     6.080000000     1.224000000    -0.267000000
C     3.701000000     3.211000000     0.779000000
H     3.802000000     4.031000000     0.073000000
C     2.812000000     3.408000000     1.864000000
C     2.101000000     4.743000000     2.062000000
H     2.626000000     5.488000000     1.461000000
H     2.028000000     4.930000000     3.136000000
C     0.682000000     4.698000000     1.504000000
C     0.560000000     5.069000000     0.136000000
H     1.458000000     5.327000000    -0.419000000
C    -0.397000000     4.252000000     2.239000000
C    -1.548000000     3.996000000     1.524000000
H    -2.281000000     3.430000000     2.093000000
C    -1.732000000     4.353000000     0.180000000
O    -2.949000000     4.038000000    -0.406000000
C    -3.161000000     2.895000000    -1.391000000
C    -4.439000000     2.020000000    -1.205000000
C    -5.196000000     1.535000000    -2.286000000
H    -4.802000000     1.489000000    -3.299000000
C    -4.928000000     1.873000000     0.064000000
H    -4.368000000     2.218000000     0.930000000
O    -2.962000000     3.321000000    -2.743000000
H    -2.313000000     2.204000000    -1.275000000
C    -0.654000000     4.915000000    -0.532000000
C    -0.808000000     5.164000000    -2.061000000
H    -0.096000000     5.903000000    -2.437000000
H    -1.715000000     5.716000000    -2.316000000
C    -0.593000000     3.870000000    -2.970000000
C     0.655000000     3.595000000    -3.449000000
H     1.464000000     4.293000000    -3.247000000
C    -1.719000000     3.037000000    -3.267000000
C    -1.496000000     1.844000000    -4.017000000
H    -2.398000000     1.284000000    -4.251000000
C    -0.190000000     1.559000000    -4.448000000
O     0.069000000     0.301000000    -5.013000000
C     0.692000000    -0.741000000    -4.155000000
C    -0.018000000    -2.077000000    -3.981000000
C    -1.399000000    -2.032000000    -4.054000000
H    -1.901000000    -1.078000000    -4.192000000
C     0.647000000    -3.300000000    -3.747000000
H     1.734000000    -3.286000000    -3.744000000
O     2.078000000    -0.857000000    -4.564000000
H     0.701000000    -0.334000000    -3.133000000
C     0.889000000     2.398000000    -4.206000000
C     2.245000000     2.144000000    -4.689000000
H     2.619000000     3.158000000    -4.839000000
H     2.103000000     1.584000000    -5.616000000
C     3.072000000     1.205000000    -3.763000000
C     2.917000000    -0.171000000    -3.742000000
C     3.584000000    -0.912000000    -2.759000000
H     3.375000000    -1.978000000    -2.712000000
C     4.279000000    -0.281000000    -1.781000000
O     4.749000000    -1.082000000    -0.722000000
C     4.146000000    -1.133000000     0.599000000
H     3.095000000    -0.816000000     0.536000000
C     4.109000000    -2.558000000     1.204000000
C     3.831000000    -2.804000000     2.572000000
H     3.613000000    -1.963000000     3.225000000
C     4.134000000    -3.659000000     0.395000000
H     4.344000000    -3.638000000    -0.671000000
C     4.054000000    -4.980000000     0.876000000
O     4.178000000    -6.001000000    -0.041000000
C     3.780000000    -5.171000000     2.211000000
H     3.582000000    -6.162000000     2.609000000
C     3.655000000    -4.103000000     3.098000000
O     3.227000000    -4.289000000     4.391000000
C     3.057000000    -3.313000000     5.332000000
C     1.788000000    -2.969000000     5.705000000
H     0.892000000    -3.459000000     5.332000000
C     4.180000000    -2.711000000     5.905000000
H     5.186000000    -3.002000000     5.615000000
C     3.987000000    -1.708000000     6.879000000
H     4.842000000    -1.135000000     7.231000000
C     2.694000000    -1.336000000     7.187000000
H     2.554000000    -0.505000000     7.874000000
C     1.593000000    -1.842000000     6.528000000
O     0.376000000    -1.328000000     6.994000000
C    -0.314000000    -0.412000000     6.245000000
C    -1.753000000    -0.408000000     6.269000000
H    -2.237000000    -1.076000000     6.976000000
C    -2.423000000     0.306000000     5.287000000
O    -3.773000000     0.104000000     5.249000000
C    -4.609000000     0.981000000     4.607000000
C    -5.240000000     0.615000000     3.451000000
H    -5.205000000    -0.430000000     3.152000000
C    -4.695000000     2.295000000     5.072000000
H    -4.187000000     2.622000000     5.976000000
C    -5.369000000     3.235000000     4.255000000
H    -5.571000000     4.235000000     4.629000000
C    -6.044000000     2.847000000     3.100000000
H    -6.645000000     3.558000000     2.540000000
C    -6.008000000     1.489000000     2.724000000
O    -6.719000000     1.127000000     1.586000000
C    -6.200000000     1.307000000     0.312000000
C    -6.904000000     0.698000000    -0.695000000
H    -7.835000000     0.154000000    -0.551000000
C    -6.348000000     0.795000000    -1.964000000
O    -7.020000000     0.081000000    -2.947000000
C    -6.328000000    -0.759000000    -3.745000000
C    -5.312000000    -1.630000000    -3.275000000
H    -5.178000000    -1.662000000    -2.197000000
C    -6.422000000    -0.582000000    -5.127000000
H    -7.190000000     0.107000000    -5.469000000
C    -5.534000000    -1.284000000    -5.961000000
H    -5.681000000    -1.116000000    -7.025000000
C    -4.441000000    -2.020000000    -5.500000000
H    -3.720000000    -2.583000000    -6.089000000
C    -4.408000000    -2.264000000    -4.137000000
O    -3.504000000    -3.124000000    -3.616000000
C    -2.161000000    -3.167000000    -3.815000000
C    -1.512000000    -4.361000000    -3.632000000
H    -2.061000000    -5.223000000    -3.261000000
C    -0.129000000    -4.450000000    -3.651000000
O     0.470000000    -5.588000000    -3.202000000
C     1.758000000    -5.785000000    -2.900000000
C     2.613000000    -5.959000000    -3.991000000
H     2.166000000    -5.943000000    -4.982000000
C     3.935000000    -6.214000000    -3.777000000
H     4.650000000    -6.455000000    -4.560000000
C     4.439000000    -6.213000000    -2.481000000
H     5.484000000    -6.445000000    -2.291000000
C     3.591000000    -6.000000000    -1.368000000
C     2.214000000    -5.806000000    -1.553000000
H     1.556000000    -5.663000000    -0.701000000
C    -0.520000000    -2.592000000    -0.328000000
H    -0.266000000    -3.616000000    -0.589000000
C     0.386000000    -1.551000000    -0.455000000
H     1.392000000    -1.663000000    -0.851000000
C     0.080000000    -0.272000000    -0.095000000
H     0.806000000     0.467000000    -0.014000000
C    -1.186000000    -0.023000000     0.411000000
H    -1.470000000     0.957000000     0.785000000
C    -2.198000000    -1.039000000     0.446000000
H    -3.191000000    -0.763000000     0.792000000
C    -1.843000000    -2.384000000     0.114000000
C    -2.871000000    -3.496000000     0.110000000
O    -3.950000000    -3.260000000     0.603000000
O    -2.530000000    -4.689000000     0.081000000
O    -3.636000000    -2.527000000     3.130000000
H    -2.713000000    -2.274000000     3.155000000
H    -3.813000000    -2.691000000     2.203000000
O    -1.600000000    -8.662000000     2.471000000
H    -1.265000000    -7.912000000     1.980000000
H    -1.584000000    -8.377000000     3.384000000
O    -3.864000000    -5.258000000     2.597000000
H    -3.758000000    -5.269000000     1.646000000
H    -3.649000000    -4.361000000     2.852000000
O    -2.366000000    -7.808000000    -1.354000000
H    -2.313000000    -7.866000000    -2.308000000
H    -3.299000000    -7.695000000    -1.173000000
O    -7.918000000    -3.401000000    -2.788000000
H    -7.257000000    -3.254000000    -2.110000000
H    -7.623000000    -4.190000000    -3.242000000
O    -7.808000000    -6.045000000     0.550000000
H    -6.962000000    -5.767000000     0.198000000
H    -7.912000000    -5.537000000     1.354000000
O    -6.662000000    -5.282000000     3.388000000
H    -5.819000000    -5.074000000     2.984000000
H    -6.572000000    -6.191000000     3.675000000
O    -4.842000000    -6.430000000    -3.664000000
H    -4.196000000    -7.114000000    -3.841000000
H    -4.848000000    -6.346000000    -2.711000000
O    -6.145000000    -3.820000000    -0.541000000
H    -6.755000000    -3.541000000     0.142000000
H    -5.280000000    -3.616000000    -0.187000000
O    -6.341000000    -8.569000000    -0.259000000
H    -5.454000000    -8.513000000     0.095000000
H    -6.818000000    -7.862000000     0.174000000
O    -1.154000000    -2.580000000     4.266000000
H    -0.789000000    -1.896000000     4.828000000
H    -0.586000000    -2.585000000     3.495000000
O     0.879000000    -1.654000000     2.633000000
H     0.654000000    -1.495000000     1.717000000
H     1.814000000    -1.857000000     2.619000000
O    -4.957000000    -7.789000000     3.448000000
H    -4.601000000    -7.023000000     2.997000000
H    -4.719000000    -8.528000000     2.888000000
O    -4.622000000    -6.178000000    -1.074000000
H    -3.796000000    -6.061000000    -0.605000000
H    -5.078000000    -5.343000000    -0.969000000
O    -2.404000000    -6.488000000     4.352000000
H    -2.042000000    -5.900000000     5.015000000
H    -2.974000000    -5.930000000     3.823000000
O    -1.461000000    -4.652000000     6.004000000
H    -1.655000000    -3.929000000     5.407000000
H    -1.756000000    -4.342000000     6.860000000
O    -5.183000000    -2.304000000     5.435000000
H    -5.198000000    -1.350000000     5.515000000
H    -4.680000000    -2.469000000     4.638000000
O    -7.741000000    -2.838000000     1.684000000
H    -7.407000000    -3.027000000     2.561000000
H    -8.644000000    -2.553000000     1.829000000
O    -0.843000000    -6.554000000     0.782000000
H    -1.097000000    -7.003000000    -0.024000000
H    -1.415000000    -5.788000000     0.819000000
