215
-1457.82735
C    -2.529000000     2.307000000     4.380000000
H    -2.564000000     3.334000000     4.025000000
C    -1.228000000     1.761000000     4.298000000
C    -1.029000000     0.663000000     5.070000000
H    -0.009000000     0.301000000     5.172000000
C    -0.080000000     2.466000000     3.572000000
O    -0.438000000     3.798000000     3.170000000
H    -0.013000000     1.837000000     2.673000000
O     1.179000000     2.464000000     4.213000000
C     2.287000000     2.166000000     3.466000000
C     2.820000000     0.876000000     3.489000000
H     2.364000000     0.222000000     4.228000000
C     3.822000000     0.461000000     2.609000000
O     4.280000000    -0.867000000     2.682000000
C     4.391000000     1.350000000     1.687000000
C     5.518000000     0.967000000     0.780000000
H     6.140000000     1.820000000     0.502000000
C     5.038000000     0.207000000    -0.445000000
C     4.731000000     0.982000000    -1.540000000
H     5.043000000     2.024000000    -1.526000000
H     6.192000000     0.314000000     1.338000000
C     3.799000000     2.646000000     1.624000000
H     4.105000000     3.372000000     0.875000000
C     2.815000000     3.078000000     2.545000000
C     2.336000000     4.533000000     2.440000000
H     3.143000000     5.195000000     2.119000000
H     2.025000000     4.784000000     3.456000000
C     1.124000000     4.539000000     1.487000000
C     1.388000000     4.789000000     0.149000000
H     2.448000000     4.825000000    -0.089000000
C    -0.142000000     4.202000000     1.899000000
C    -1.162000000     4.132000000     0.986000000
H    -2.188000000     3.861000000     1.218000000
C    -0.886000000     4.475000000    -0.314000000
O    -1.979000000     4.280000000    -1.128000000
C    -1.926000000     3.013000000    -1.859000000
C    -3.346000000     2.417000000    -1.988000000
C    -3.711000000     1.677000000    -3.109000000
H    -3.062000000     1.688000000    -3.981000000
C    -4.179000000     2.427000000    -0.904000000
H    -4.058000000     2.997000000     0.014000000
O    -1.398000000     3.243000000    -3.180000000
H    -1.271000000     2.275000000    -1.371000000
C     0.388000000     4.737000000    -0.776000000
C     0.733000000     4.920000000    -2.220000000
H     1.561000000     5.630000000    -2.201000000
H    -0.064000000     5.497000000    -2.694000000
C     1.012000000     3.575000000    -2.889000000
C     2.252000000     3.071000000    -3.040000000
H     3.071000000     3.622000000    -2.585000000
C    -0.071000000     2.933000000    -3.537000000
C     0.158000000     1.795000000    -4.256000000
H    -0.712000000     1.203000000    -4.527000000
C     1.404000000     1.291000000    -4.433000000
O     1.499000000    -0.010000000    -4.839000000
C     1.636000000    -1.042000000    -3.848000000
C     0.727000000    -2.174000000    -4.327000000
C    -0.534000000    -1.998000000    -4.928000000
H    -0.884000000    -0.981000000    -5.083000000
C     1.137000000    -3.508000000    -3.968000000
H     2.099000000    -3.737000000    -3.518000000
O     3.045000000    -1.461000000    -3.656000000
H     1.207000000    -0.713000000    -2.890000000
C     2.506000000     1.911000000    -3.797000000
C     3.895000000     1.379000000    -3.845000000
H     4.633000000     2.183000000    -3.825000000
H     4.114000000     0.818000000    -4.756000000
C     4.201000000     0.441000000    -2.685000000
C     3.763000000    -0.900000000    -2.652000000
C     4.010000000    -1.711000000    -1.551000000
H     3.758000000    -2.767000000    -1.589000000
C     4.666000000    -1.143000000    -0.432000000
O     4.753000000    -1.881000000     0.685000000
C     3.758000000    -1.708000000     1.672000000
H     3.010000000    -1.145000000     1.096000000
C     3.019000000    -2.909000000     2.167000000
C     2.808000000    -3.061000000     3.537000000
H     3.257000000    -2.439000000     4.307000000
C     2.451000000    -3.767000000     1.170000000
H     2.583000000    -3.643000000     0.099000000
C     1.678000000    -4.851000000     1.651000000
O     0.976000000    -5.619000000     0.801000000
C     1.394000000    -5.029000000     2.992000000
H     0.584000000    -5.680000000     3.310000000
C     2.002000000    -4.187000000     3.937000000
O     1.631000000    -4.385000000     5.274000000
C     1.082000000    -3.388000000     6.062000000
C    -0.238000000    -2.933000000     5.820000000
H    -0.884000000    -3.346000000     5.049000000
C     1.761000000    -2.967000000     7.259000000
H     2.753000000    -3.360000000     7.466000000
C     1.170000000    -2.006000000     8.098000000
H     1.701000000    -1.527000000     8.917000000
C    -0.119000000    -1.509000000     7.753000000
H    -0.565000000    -0.776000000     8.421000000
C    -0.798000000    -1.923000000     6.581000000
O    -1.963000000    -1.414000000     6.187000000
C    -2.071000000    -0.177000000     5.511000000
C    -3.337000000     0.405000000     5.480000000
H    -4.214000000    -0.057000000     5.925000000
C    -3.543000000     1.685000000     5.011000000
O    -4.806000000     2.263000000     4.934000000
C    -5.320000000     2.724000000     3.728000000
C    -5.483000000     1.879000000     2.640000000
H    -5.154000000     0.843000000     2.618000000
C    -5.857000000     4.011000000     3.669000000
H    -5.994000000     4.567000000     4.593000000
C    -6.414000000     4.522000000     2.515000000
H    -6.847000000     5.519000000     2.480000000
C    -6.484000000     3.692000000     1.375000000
H    -6.874000000     3.923000000     0.387000000
C    -6.044000000     2.354000000     1.479000000
O    -6.139000000     1.586000000     0.328000000
C    -5.336000000     1.652000000    -0.830000000
C    -5.698000000     0.876000000    -1.969000000
H    -6.560000000     0.219000000    -1.896000000
C    -4.910000000     0.937000000    -3.104000000
O    -5.272000000     0.184000000    -4.208000000
C    -4.541000000    -0.184000000    -5.256000000
C    -3.931000000    -1.432000000    -5.151000000
H    -4.038000000    -1.917000000    -4.184000000
C    -4.346000000     0.606000000    -6.387000000
H    -4.799000000     1.576000000    -6.575000000
C    -3.597000000     0.165000000    -7.453000000
H    -3.539000000     0.598000000    -8.448000000
C    -2.923000000    -1.082000000    -7.311000000
H    -2.413000000    -1.545000000    -8.152000000
C    -3.059000000    -1.812000000    -6.138000000
O    -2.411000000    -3.015000000    -5.993000000
C    -1.291000000    -3.141000000    -5.215000000
C    -0.878000000    -4.439000000    -4.884000000
H    -1.468000000    -5.306000000    -5.170000000
C     0.321000000    -4.583000000    -4.231000000
O     0.776000000    -5.865000000    -3.985000000
C     1.370000000    -6.211000000    -2.807000000
C     2.408000000    -7.189000000    -2.796000000
H     2.846000000    -7.551000000    -3.723000000
C     3.007000000    -7.537000000    -1.571000000
H     3.760000000    -8.319000000    -1.630000000
C     2.565000000    -6.987000000    -0.346000000
H     3.074000000    -7.168000000     0.597000000
C     1.523000000    -6.076000000    -0.377000000
C     0.928000000    -5.699000000    -1.609000000
H     0.267000000    -4.839000000    -1.545000000
C    -1.482000000    -2.007000000    -1.371000000
H    -1.230000000    -2.727000000    -2.145000000
C    -0.545000000    -1.238000000    -0.648000000
H     0.505000000    -1.422000000    -0.859000000
C    -0.920000000    -0.334000000     0.327000000
H    -0.249000000     0.177000000     1.013000000
C    -2.293000000    -0.184000000     0.575000000
H    -2.517000000     0.543000000     1.352000000
C    -3.213000000    -0.948000000    -0.058000000
H    -4.293000000    -0.857000000     0.030000000
C    -2.781000000    -1.927000000    -0.992000000
C    -3.759000000    -2.968000000    -1.498000000
O    -4.976000000    -2.812000000    -1.328000000
O    -3.439000000    -4.014000000    -1.997000000
O    -6.646000000    -1.575000000     0.666000000
H    -7.283000000    -1.115000000     0.119000000
H    -6.261000000    -2.231000000     0.085000000
O    -1.102000000    -7.885000000     1.459000000
H    -1.517000000    -7.066000000     1.729000000
H    -0.232000000    -7.625000000     1.157000000
O    -6.253000000    -4.991000000     1.655000000
H    -6.145000000    -5.304000000     2.554000000
H    -5.957000000    -4.081000000     1.681000000
O    -2.263000000    -7.724000000    -3.026000000
H    -2.127000000    -7.062000000    -2.349000000
H    -2.420000000    -8.534000000    -2.541000000
O    -8.877000000    -5.334000000    -0.447000000
H    -8.229000000    -4.881000000     0.093000000
H    -8.448000000    -5.442000000    -1.296000000
O    -6.966000000    -7.976000000    -1.681000000
H    -6.240000000    -7.370000000    -1.539000000
H    -7.527000000    -7.862000000    -0.914000000
O    -6.005000000    -5.381000000    -1.350000000
H    -5.544000000    -5.802000000    -0.625000000
H    -5.688000000    -4.478000000    -1.343000000
O    -7.270000000    -5.371000000    -5.133000000
H    -7.604000000    -6.268000000    -5.123000000
H    -6.349000000    -5.455000000    -4.888000000
O    -6.866000000    -2.688000000    -3.147000000
H    -7.128000000    -3.607000000    -3.111000000
H    -6.106000000    -2.632000000    -2.568000000
O    -5.042000000    -7.179000000     0.885000000
H    -5.536000000    -6.361000000     0.929000000
H    -4.180000000    -6.921000000     0.557000000
O    -2.286000000    -5.521000000     2.002000000
H    -2.115000000    -4.601000000     2.205000000
H    -2.658000000    -5.879000000     2.808000000
O    -1.941000000    -2.600000000     2.477000000
H    -1.718000000    -1.683000000     2.315000000
H    -2.891000000    -2.638000000     2.367000000
O    -4.534000000    -5.346000000    -7.099000000
H    -4.998000000    -4.511000000    -7.034000000
H    -4.115000000    -5.454000000    -6.245000000
O    -3.657000000    -5.776000000    -4.208000000
H    -2.991000000    -6.405000000    -3.929000000
H    -3.790000000    -5.213000000    -3.446000000
O    -8.879000000    -1.044000000    -3.952000000
H    -9.373000000    -1.862000000    -4.023000000
H    -8.125000000    -1.266000000    -3.406000000
O    -4.645000000    -2.413000000     2.339000000
H    -5.099000000    -2.018000000     1.595000000
H    -5.326000000    -2.524000000     3.003000000
O    -7.653000000    -0.295000000     2.912000000
H    -7.793000000     0.564000000     2.512000000
H    -7.172000000    -0.792000000     2.250000000
O    -2.850000000    -6.230000000    -0.688000000
H    -2.456000000    -5.778000000     0.058000000
H    -3.182000000    -5.527000000    -1.246000000
O    -6.199000000    -3.204000000    -6.858000000
H    -6.701000000    -2.505000000    -6.438000000
H    -6.520000000    -4.008000000    -6.449000000
