215
-1469.92692
C    -2.435000000     1.221000000     3.796000000
H    -2.648000000     2.083000000     3.170000000
C    -1.133000000     1.001000000     4.175000000
C    -0.793000000    -0.100000000     4.990000000
H     0.245000000    -0.201000000     5.296000000
C    -0.028000000     1.836000000     3.579000000
O    -0.408000000     3.210000000     3.353000000
H     0.316000000     1.442000000     2.612000000
O     1.196000000     1.895000000     4.373000000
C     2.345000000     1.775000000     3.653000000
C     3.086000000     0.631000000     3.671000000
H     2.847000000    -0.176000000     4.358000000
C     4.008000000     0.310000000     2.704000000
O     4.445000000    -1.017000000     2.543000000
C     4.458000000     1.267000000     1.788000000
C     5.449000000     1.015000000     0.657000000
H     5.843000000     1.956000000     0.267000000
C     4.750000000     0.333000000    -0.504000000
C     4.348000000     1.226000000    -1.516000000
H     4.606000000     2.281000000    -1.458000000
H     6.166000000     0.247000000     0.953000000
C     3.917000000     2.520000000     1.940000000
H     4.208000000     3.338000000     1.286000000
C     2.838000000     2.751000000     2.789000000
C     2.155000000     4.072000000     2.807000000
H     2.810000000     4.943000000     2.740000000
H     1.690000000     4.316000000     3.765000000
C     1.091000000     4.223000000     1.727000000
C     1.373000000     4.686000000     0.481000000
H     2.364000000     5.066000000     0.248000000
C    -0.187000000     3.774000000     2.097000000
C    -1.236000000     3.892000000     1.128000000
H    -2.233000000     3.674000000     1.504000000
C    -0.954000000     4.378000000    -0.120000000
O    -1.926000000     4.343000000    -1.110000000
C    -2.069000000     3.174000000    -1.914000000
C    -3.519000000     2.714000000    -1.941000000
C    -3.886000000     1.609000000    -2.731000000
H    -3.144000000     1.341000000    -3.479000000
C    -4.414000000     3.161000000    -0.978000000
H    -4.116000000     3.940000000    -0.280000000
O    -1.580000000     3.660000000    -3.201000000
H    -1.372000000     2.409000000    -1.541000000
C     0.387000000     4.786000000    -0.498000000
C     0.679000000     5.235000000    -1.969000000
H     1.518000000     5.918000000    -1.821000000
H    -0.108000000     5.898000000    -2.333000000
C     0.791000000     4.060000000    -2.874000000
C     2.066000000     3.534000000    -2.863000000
H     2.885000000     4.108000000    -2.437000000
C    -0.255000000     3.379000000    -3.487000000
C     0.018000000     2.351000000    -4.441000000
H    -0.812000000     1.854000000    -4.937000000
C     1.293000000     1.770000000    -4.327000000
O     1.437000000     0.506000000    -4.918000000
C     1.439000000    -0.579000000    -3.954000000
C     0.455000000    -1.737000000    -4.315000000
C    -0.530000000    -1.669000000    -5.293000000
H    -0.585000000    -0.755000000    -5.879000000
C     0.580000000    -2.900000000    -3.537000000
H     1.335000000    -2.975000000    -2.758000000
O     2.797000000    -1.074000000    -3.878000000
H     1.065000000    -0.275000000    -2.965000000
C     2.285000000     2.371000000    -3.600000000
C     3.663000000     1.754000000    -3.804000000
H     4.451000000     2.511000000    -3.815000000
H     3.806000000     1.296000000    -4.785000000
C     3.819000000     0.773000000    -2.699000000
C     3.502000000    -0.580000000    -2.777000000
C     3.850000000    -1.451000000    -1.799000000
H     3.667000000    -2.520000000    -1.876000000
C     4.474000000    -0.995000000    -0.637000000
O     4.629000000    -1.906000000     0.343000000
C     3.743000000    -1.769000000     1.514000000
H     2.834000000    -1.213000000     1.241000000
C     3.269000000    -3.124000000     2.089000000
C     3.057000000    -3.344000000     3.405000000
H     3.215000000    -2.500000000     4.072000000
C     3.154000000    -4.176000000     1.196000000
H     3.469000000    -4.019000000     0.167000000
C     2.671000000    -5.384000000     1.610000000
O     2.516000000    -6.451000000     0.692000000
C     2.356000000    -5.567000000     2.938000000
H     1.995000000    -6.535000000     3.278000000
C     2.610000000    -4.580000000     3.831000000
O     2.234000000    -4.865000000     5.087000000
C     1.562000000    -3.964000000     5.837000000
C     0.287000000    -3.454000000     5.577000000
H    -0.318000000    -3.685000000     4.703000000
C     2.311000000    -3.455000000     6.957000000
H     3.310000000    -3.861000000     7.097000000
C     1.779000000    -2.472000000     7.797000000
H     2.419000000    -2.152000000     8.616000000
C     0.478000000    -1.971000000     7.507000000
H     0.072000000    -1.163000000     8.112000000
C    -0.239000000    -2.483000000     6.431000000
O    -1.514000000    -2.059000000     6.216000000
C    -1.837000000    -0.890000000     5.489000000
C    -3.143000000    -0.628000000     5.250000000
H    -3.975000000    -1.229000000     5.609000000
C    -3.497000000     0.403000000     4.330000000
O    -4.791000000     0.631000000     4.035000000
C    -5.309000000     1.766000000     3.383000000
C    -5.614000000     1.765000000     2.038000000
H    -5.327000000     0.975000000     1.349000000
C    -5.790000000     2.828000000     4.159000000
H    -5.541000000     2.791000000     5.216000000
C    -6.588000000     3.853000000     3.598000000
H    -6.863000000     4.719000000     4.195000000
C    -6.793000000     3.870000000     2.246000000
H    -7.324000000     4.739000000     1.866000000
C    -6.296000000     2.824000000     1.470000000
O    -6.523000000     2.875000000     0.084000000
C    -5.646000000     2.576000000    -0.903000000
C    -6.117000000     1.691000000    -1.894000000
H    -7.118000000     1.272000000    -1.830000000
C    -5.185000000     1.143000000    -2.783000000
O    -5.535000000     0.112000000    -3.636000000
C    -4.899000000    -0.132000000    -4.784000000
C    -4.036000000    -1.280000000    -4.896000000
H    -3.975000000    -2.031000000    -4.112000000
C    -5.031000000     0.770000000    -5.859000000
H    -5.650000000     1.660000000    -5.782000000
C    -4.331000000     0.474000000    -7.047000000
H    -4.516000000     1.116000000    -7.904000000
C    -3.466000000    -0.598000000    -7.089000000
H    -2.961000000    -0.781000000    -8.034000000
C    -3.326000000    -1.432000000    -6.039000000
O    -2.559000000    -2.566000000    -6.242000000
C    -1.488000000    -2.706000000    -5.443000000
C    -1.320000000    -3.870000000    -4.718000000
H    -1.999000000    -4.703000000    -4.881000000
C    -0.270000000    -3.994000000    -3.837000000
O    -0.204000000    -5.168000000    -3.122000000
C     0.982000000    -5.707000000    -2.571000000
C     2.138000000    -5.767000000    -3.420000000
H     2.091000000    -5.759000000    -4.506000000
C     3.370000000    -6.269000000    -2.942000000
H     4.216000000    -6.475000000    -3.593000000
C     3.480000000    -6.561000000    -1.540000000
H     4.402000000    -6.898000000    -1.072000000
C     2.360000000    -6.311000000    -0.692000000
C     1.139000000    -5.948000000    -1.236000000
H     0.254000000    -5.870000000    -0.611000000
C    -1.065000000    -2.062000000    -0.342000000
H    -1.010000000    -3.037000000    -0.820000000
C     0.041000000    -1.300000000    -0.197000000
H     0.964000000    -1.815000000    -0.448000000
C     0.022000000    -0.083000000     0.405000000
H     0.883000000     0.507000000     0.670000000
C    -1.232000000     0.448000000     0.715000000
H    -1.387000000     1.403000000     1.210000000
C    -2.434000000    -0.324000000     0.540000000
H    -3.401000000     0.019000000     0.897000000
C    -2.354000000    -1.599000000    -0.014000000
C    -3.605000000    -2.396000000    -0.326000000
O    -4.698000000    -2.050000000     0.110000000
O    -3.443000000    -3.468000000    -0.811000000
O    -6.187000000    -1.378000000     2.255000000
H    -7.048000000    -1.119000000     1.928000000
H    -5.695000000    -1.618000000     1.470000000
O    -9.186000000     1.246000000     0.046000000
H    -8.586000000     0.849000000     0.677000000
H    -8.865000000     2.142000000    -0.059000000
O    -5.710000000    -6.630000000     2.804000000
H    -6.331000000    -6.416000000     3.501000000
H    -5.236000000    -5.813000000     2.647000000
O    -7.818000000    -3.877000000    -5.108000000
H    -8.362000000    -4.665000000    -5.094000000
H    -6.920000000    -4.205000000    -5.063000000
O    -2.662000000    -7.434000000    -3.143000000
H    -2.737000000    -6.993000000    -2.296000000
H    -2.825000000    -6.745000000    -3.787000000
O    -6.092000000    -6.184000000    -2.262000000
H    -5.824000000    -6.525000000    -1.408000000
H    -6.848000000    -6.717000000    -2.506000000
O    -5.591000000    -4.668000000     0.273000000
H    -5.651000000    -3.746000000     0.524000000
H    -4.774000000    -4.729000000    -0.222000000
O    -5.249000000    -5.184000000    -5.339000000
H    -5.096000000    -6.124000000    -5.245000000
H    -4.709000000    -4.784000000    -4.658000000
O    -6.697000000    -1.460000000    -1.628000000
H    -6.244000000    -1.034000000    -2.355000000
H    -6.030000000    -1.547000000    -0.947000000
O    -5.072000000    -7.359000000     0.109000000
H    -5.563000000    -6.840000000     0.746000000
H    -4.211000000    -6.943000000     0.074000000
O    -1.034000000    -5.669000000     2.272000000
H    -1.722000000    -5.499000000     2.916000000
H    -0.472000000    -4.895000000     2.313000000
O    -1.140000000    -2.345000000     2.778000000
H    -0.994000000    -1.994000000     1.900000000
H    -1.100000000    -1.580000000     3.352000000
O    -3.979000000    -4.598000000    -2.953000000
H    -4.820000000    -4.948000000    -2.658000000
H    -3.736000000    -3.961000000    -2.281000000
O    -2.778000000    -4.263000000     3.671000000
H    -3.710000000    -4.049000000     3.617000000
H    -2.332000000    -3.452000000     3.426000000
O    -3.666000000    -8.616000000     2.540000000
H    -4.413000000    -9.210000000     2.469000000
H    -4.006000000    -7.768000000     2.257000000
O    -8.868000000    -2.034000000    -3.521000000
H    -8.543000000    -2.717000000    -4.108000000
H    -8.168000000    -1.918000000    -2.878000000
O    -8.076000000    -3.730000000    -0.506000000
H    -7.313000000    -4.286000000    -0.351000000
H    -7.712000000    -2.857000000    -0.653000000
O    -5.504000000    -3.784000000     3.357000000
H    -5.649000000    -2.850000000     3.204000000
H    -5.686000000    -3.904000000     4.289000000
O    -2.644000000    -6.013000000    -0.653000000
H    -2.022000000    -5.976000000     0.073000000
H    -2.692000000    -5.112000000    -0.972000000
