215
-1477.76349
C    -0.427000000     1.503000000     5.094000000
H    -0.848000000     2.469000000     4.827000000
C     0.857000000     1.199000000     4.615000000
C     1.458000000     0.014000000     5.075000000
H     2.475000000    -0.241000000     4.788000000
C     1.430000000     2.004000000     3.473000000
O     0.942000000     3.383000000     3.480000000
H     1.140000000     1.494000000     2.543000000
O     2.857000000     1.850000000     3.519000000
C     3.577000000     1.792000000     2.321000000
C     4.114000000     0.525000000     2.005000000
H     3.971000000    -0.357000000     2.624000000
C     4.573000000     0.297000000     0.638000000
O     4.853000000    -1.011000000     0.299000000
C     4.599000000     1.308000000    -0.312000000
C     5.088000000     1.041000000    -1.661000000
H     5.531000000     1.960000000    -2.050000000
C     4.048000000     0.497000000    -2.694000000
C     3.351000000     1.417000000    -3.466000000
H     3.576000000     2.475000000    -3.354000000
H     5.961000000     0.387000000    -1.622000000
C     4.263000000     2.614000000     0.116000000
H     4.349000000     3.428000000    -0.599000000
C     3.788000000     2.863000000     1.410000000
C     3.317000000     4.264000000     1.744000000
H     3.874000000     5.076000000     1.271000000
H     3.505000000     4.568000000     2.775000000
C     1.825000000     4.378000000     1.422000000
C     1.446000000     4.766000000     0.135000000
H     2.180000000     5.115000000    -0.586000000
C     0.774000000     4.018000000     2.296000000
C    -0.608000000     3.978000000     1.948000000
H    -1.372000000     3.776000000     2.693000000
C    -0.940000000     4.442000000     0.661000000
O    -2.293000000     4.360000000     0.341000000
C    -2.670000000     3.191000000    -0.368000000
C    -4.035000000     2.696000000     0.111000000
C    -5.043000000     2.265000000    -0.836000000
H    -4.910000000     2.367000000    -1.910000000
C    -4.384000000     2.588000000     1.436000000
H    -3.605000000     2.975000000     2.088000000
O    -2.799000000     3.571000000    -1.769000000
H    -1.910000000     2.407000000    -0.237000000
C     0.143000000     4.710000000    -0.276000000
C    -0.316000000     5.160000000    -1.687000000
H     0.365000000     5.891000000    -2.128000000
H    -1.147000000     5.843000000    -1.499000000
C    -0.613000000     3.994000000    -2.615000000
C     0.425000000     3.564000000    -3.482000000
H     1.395000000     4.053000000    -3.514000000
C    -1.832000000     3.313000000    -2.657000000
C    -1.937000000     2.221000000    -3.548000000
H    -2.828000000     1.607000000    -3.453000000
C    -0.920000000     1.773000000    -4.364000000
O    -1.023000000     0.569000000    -5.105000000
C    -0.386000000    -0.585000000    -4.435000000
C    -1.329000000    -1.788000000    -4.360000000
C    -2.663000000    -1.535000000    -3.994000000
H    -2.987000000    -0.498000000    -3.962000000
C    -0.844000000    -3.058000000    -4.457000000
H     0.169000000    -3.146000000    -4.841000000
O     0.901000000    -0.856000000    -5.046000000
H    -0.248000000    -0.256000000    -3.395000000
C     0.328000000     2.457000000    -4.316000000
C     1.554000000     2.071000000    -5.065000000
H     2.201000000     2.867000000    -5.441000000
H     1.250000000     1.492000000    -5.939000000
C     2.345000000     0.990000000    -4.303000000
C     2.122000000    -0.415000000    -4.437000000
C     2.788000000    -1.344000000    -3.698000000
H     2.525000000    -2.399000000    -3.665000000
C     3.727000000    -0.890000000    -2.782000000
O     4.388000000    -1.796000000    -1.879000000
C     3.937000000    -1.708000000    -0.485000000
H     2.944000000    -1.233000000    -0.485000000
C     3.745000000    -3.157000000     0.091000000
C     3.669000000    -3.382000000     1.469000000
H     3.855000000    -2.574000000     2.171000000
C     3.420000000    -4.181000000    -0.758000000
H     3.386000000    -4.021000000    -1.833000000
C     2.933000000    -5.420000000    -0.233000000
O     2.568000000    -6.432000000    -1.078000000
C     2.895000000    -5.611000000     1.117000000
H     2.532000000    -6.555000000     1.515000000
C     3.286000000    -4.637000000     1.983000000
O     3.000000000    -4.772000000     3.310000000
C     3.350000000    -3.887000000     4.299000000
C     2.268000000    -3.309000000     4.961000000
H     1.239000000    -3.479000000     4.652000000
C     4.670000000    -3.719000000     4.732000000
H     5.509000000    -4.212000000     4.249000000
C     4.930000000    -2.956000000     5.834000000
H     5.886000000    -2.866000000     6.343000000
C     3.882000000    -2.267000000     6.452000000
H     4.071000000    -1.662000000     7.335000000
C     2.566000000    -2.470000000     6.009000000
O     1.515000000    -1.840000000     6.629000000
C     0.858000000    -0.788000000     6.021000000
C    -0.347000000    -0.349000000     6.615000000
H    -0.751000000    -0.859000000     7.485000000
C    -1.001000000     0.774000000     6.058000000
O    -2.196000000     1.117000000     6.632000000
C    -3.146000000     1.854000000     5.995000000
C    -3.901000000     1.369000000     4.936000000
H    -3.714000000     0.350000000     4.606000000
C    -3.366000000     3.134000000     6.437000000
H    -2.788000000     3.532000000     7.268000000
C    -4.256000000     3.978000000     5.868000000
H    -4.449000000     4.962000000     6.289000000
C    -4.940000000     3.512000000     4.700000000
H    -5.643000000     4.225000000     4.279000000
C    -4.854000000     2.138000000     4.319000000
O    -5.680000000     1.643000000     3.344000000
C    -5.462000000     1.912000000     1.967000000
C    -6.399000000     1.505000000     1.017000000
H    -7.300000000     0.971000000     1.309000000
C    -6.190000000     1.645000000    -0.347000000
O    -7.059000000     1.092000000    -1.166000000
C    -6.766000000     0.341000000    -2.282000000
C    -6.034000000    -0.847000000    -2.167000000
H    -5.784000000    -1.260000000    -1.193000000
C    -7.054000000     0.947000000    -3.517000000
H    -7.676000000     1.838000000    -3.554000000
C    -6.511000000     0.410000000    -4.633000000
H    -6.749000000     0.875000000    -5.586000000
C    -5.726000000    -0.737000000    -4.581000000
H    -5.412000000    -1.182000000    -5.522000000
C    -5.460000000    -1.335000000    -3.335000000
O    -4.775000000    -2.502000000    -3.287000000
C    -3.448000000    -2.684000000    -3.695000000
C    -2.907000000    -3.934000000    -3.663000000
H    -3.545000000    -4.755000000    -3.344000000
C    -1.559000000    -4.128000000    -4.014000000
O    -1.063000000    -5.430000000    -4.083000000
C     0.220000000    -5.760000000    -3.796000000
C     0.877000000    -6.475000000    -4.771000000
H     0.352000000    -6.614000000    -5.713000000
C     2.099000000    -7.029000000    -4.583000000
H     2.613000000    -7.407000000    -5.462000000
C     2.661000000    -6.983000000    -3.338000000
H     3.676000000    -7.343000000    -3.193000000
C     2.041000000    -6.279000000    -2.307000000
C     0.817000000    -5.621000000    -2.534000000
H     0.262000000    -5.139000000    -1.733000000
C    -0.375000000    -1.917000000    -0.699000000
H    -0.211000000    -2.802000000    -1.308000000
C     0.541000000    -0.829000000    -0.741000000
H     1.297000000    -0.763000000    -1.520000000
C     0.260000000     0.306000000     0.080000000
H     0.987000000     1.188000000    -0.039000000
C    -0.840000000     0.284000000     0.956000000
H    -1.124000000     1.101000000     1.614000000
C    -1.667000000    -0.823000000     1.013000000
H    -2.427000000    -0.948000000     1.780000000
C    -1.471000000    -1.899000000     0.151000000
C    -2.338000000    -3.135000000     0.191000000
O    -3.265000000    -2.989000000     0.905000000
O    -1.924000000    -4.309000000    -0.045000000
O    -4.882000000    -1.604000000     3.646000000
H    -4.026000000    -1.952000000     3.897000000
H    -5.005000000    -1.900000000     2.744000000
O     0.953000000    -8.446000000     0.594000000
H     0.899000000    -8.320000000    -0.353000000
H     0.165000000    -8.025000000     0.937000000
O    -3.558000000    -8.925000000    -0.378000000
H    -2.968000000    -9.176000000     0.332000000
H    -3.325000000    -8.017000000    -0.573000000
O    -3.479000000    -5.781000000     1.561000000
H    -3.143000000    -4.954000000     1.217000000
H    -2.873000000    -6.443000000     1.228000000
O    -5.926000000    -5.661000000    -1.037000000
H    -6.168000000    -5.830000000    -0.126000000
H    -6.649000000    -6.022000000    -1.549000000
O    -2.032000000    -8.305000000     1.549000000
H    -1.449000000    -7.694000000     1.998000000
H    -1.762000000    -9.168000000     1.862000000
O    -0.603000000    -8.547000000    -2.192000000
H    -1.344000000    -9.067000000    -2.505000000
H    -0.794000000    -7.657000000    -2.488000000
O    -5.940000000    -3.139000000     0.249000000
H    -5.958000000    -3.898000000    -0.334000000
H    -5.010000000    -2.982000000     0.411000000
O    -2.450000000    -3.082000000     3.598000000
H    -2.926000000    -3.124000000     2.769000000
H    -1.534000000    -3.220000000     3.356000000
O    -3.636000000    -6.142000000     4.140000000
H    -4.590000000    -6.211000000     4.179000000
H    -3.439000000    -6.079000000     3.205000000
O     1.336000000    -1.723000000     2.159000000
H     0.941000000    -1.396000000     1.350000000
H     0.850000000    -1.282000000     2.856000000
O    -6.235000000    -6.367000000     1.752000000
H    -5.286000000    -6.286000000     1.655000000
H    -6.375000000    -6.422000000     2.698000000
O    -3.054000000    -6.393000000    -1.476000000
H    -2.461000000    -5.772000000    -1.053000000
H    -3.930000000    -6.066000000    -1.271000000
O    -0.326000000    -6.953000000     3.091000000
H    -0.086000000    -6.031000000     2.994000000
H     0.466000000    -7.372000000     3.427000000
O    -1.694000000    -3.973000000     6.331000000
H    -1.957000000    -3.765000000     5.435000000
H    -1.682000000    -4.930000000     6.362000000
O    -7.729000000    -1.049000000     3.122000000
H    -7.954000000    -0.459000000     3.841000000
H    -6.785000000    -1.182000000     3.208000000
O    -6.346000000    -4.895000000    -4.019000000
H    -7.069000000    -5.267000000    -3.514000000
H    -5.911000000    -4.298000000    -3.410000000
O    -8.218000000    -1.383000000     0.399000000
H    -7.478000000    -1.971000000     0.248000000
H    -8.243000000    -1.267000000     1.349000000
O    -0.264000000    -4.104000000     2.109000000
H    -0.576000000    -4.136000000     1.204000000
H     0.398000000    -3.412000000     2.110000000
