215
-1452.31433
C    -1.921000000     2.164000000     4.902000000
H    -2.440000000     3.014000000     4.466000000
C    -0.673000000     1.774000000     4.517000000
C    -0.100000000     0.585000000     4.962000000
H     0.857000000     0.177000000     4.647000000
C     0.111000000     2.507000000     3.426000000
O    -0.427000000     3.802000000     3.056000000
H     0.132000000     1.745000000     2.632000000
O     1.429000000     2.666000000     3.886000000
C     2.378000000     2.565000000     2.912000000
C     3.110000000     1.379000000     2.952000000
H     2.916000000     0.550000000     3.629000000
C     4.053000000     1.150000000     1.968000000
O     4.572000000    -0.120000000     1.955000000
C     4.281000000     2.039000000     0.909000000
C     5.273000000     1.781000000    -0.185000000
H     5.502000000     2.771000000    -0.586000000
C     4.580000000     1.064000000    -1.308000000
C     4.006000000     1.789000000    -2.375000000
H     4.152000000     2.865000000    -2.420000000
H     6.229000000     1.351000000     0.123000000
C     3.550000000     3.211000000     0.922000000
H     3.685000000     3.913000000     0.103000000
C     2.672000000     3.591000000     1.960000000
C     1.992000000     4.885000000     1.880000000
H     2.622000000     5.610000000     1.362000000
H     1.820000000     5.163000000     2.922000000
C     0.679000000     4.676000000     1.068000000
C     0.559000000     5.055000000    -0.280000000
H     1.414000000     5.369000000    -0.873000000
C    -0.448000000     4.129000000     1.708000000
C    -1.663000000     4.108000000     1.152000000
H    -2.528000000     3.813000000     1.740000000
C    -1.731000000     4.304000000    -0.153000000
O    -2.896000000     3.834000000    -0.739000000
C    -2.749000000     2.599000000    -1.377000000
C    -3.978000000     1.680000000    -1.197000000
C    -4.583000000     0.959000000    -2.256000000
H    -4.085000000     0.964000000    -3.222000000
C    -4.610000000     1.675000000     0.075000000
H    -4.227000000     2.290000000     0.885000000
O    -2.610000000     2.799000000    -2.808000000
H    -1.867000000     2.017000000    -1.073000000
C    -0.651000000     4.807000000    -0.897000000
C    -0.746000000     4.917000000    -2.420000000
H    -0.005000000     5.653000000    -2.741000000
H    -1.742000000     5.279000000    -2.683000000
C    -0.403000000     3.643000000    -3.132000000
C     0.865000000     3.388000000    -3.596000000
H     1.601000000     4.167000000    -3.415000000
C    -1.381000000     2.711000000    -3.363000000
C    -1.114000000     1.531000000    -4.050000000
H    -1.862000000     0.784000000    -4.305000000
C     0.197000000     1.317000000    -4.504000000
O     0.399000000     0.089000000    -4.873000000
C     0.825000000    -0.885000000    -3.910000000
C     0.072000000    -2.226000000    -4.150000000
C    -1.222000000    -2.283000000    -4.665000000
H    -1.760000000    -1.396000000    -4.989000000
C     0.727000000    -3.439000000    -3.767000000
H     1.678000000    -3.330000000    -3.251000000
O     2.246000000    -1.012000000    -4.038000000
H     0.437000000    -0.468000000    -2.969000000
C     1.205000000     2.235000000    -4.262000000
C     2.632000000     1.944000000    -4.606000000
H     3.210000000     2.831000000    -4.875000000
H     2.589000000     1.359000000    -5.527000000
C     3.194000000     1.135000000    -3.402000000
C     3.028000000    -0.213000000    -3.211000000
C     3.628000000    -0.975000000    -2.212000000
H     3.466000000    -2.050000000    -2.225000000
C     4.348000000    -0.301000000    -1.264000000
O     4.843000000    -1.073000000    -0.243000000
C     4.052000000    -1.085000000     0.988000000
H     3.019000000    -0.780000000     0.766000000
C     3.936000000    -2.481000000     1.610000000
C     3.777000000    -2.695000000     2.994000000
H     3.751000000    -1.832000000     3.654000000
C     3.937000000    -3.572000000     0.783000000
H     4.026000000    -3.485000000    -0.297000000
C     3.639000000    -4.878000000     1.285000000
O     3.530000000    -5.967000000     0.408000000
C     3.492000000    -5.137000000     2.664000000
H     3.278000000    -6.129000000     3.053000000
C     3.613000000    -4.005000000     3.521000000
O     3.358000000    -4.263000000     4.874000000
C     2.851000000    -3.260000000     5.646000000
C     1.572000000    -2.817000000     5.475000000
H     0.917000000    -3.329000000     4.774000000
C     3.666000000    -2.599000000     6.594000000
H     4.678000000    -2.994000000     6.638000000
C     3.147000000    -1.505000000     7.308000000
H     3.871000000    -0.989000000     7.933000000
C     1.764000000    -1.154000000     7.160000000
H     1.347000000    -0.411000000     7.835000000
C     0.992000000    -1.790000000     6.238000000
O    -0.382000000    -1.570000000     6.097000000
C    -0.881000000    -0.318000000     5.716000000
C    -2.127000000     0.010000000     6.085000000
H    -2.728000000    -0.794000000     6.501000000
C    -2.691000000     1.221000000     5.692000000
O    -4.021000000     1.378000000     5.907000000
C    -4.830000000     1.724000000     4.895000000
C    -5.004000000     0.901000000     3.768000000
H    -4.512000000    -0.066000000     3.709000000
C    -5.568000000     2.861000000     5.029000000
H    -5.574000000     3.562000000     5.861000000
C    -6.529000000     3.208000000     4.077000000
H    -7.110000000     4.121000000     4.182000000
C    -6.676000000     2.417000000     2.918000000
H    -7.507000000     2.694000000     2.275000000
C    -5.904000000     1.280000000     2.713000000
O    -6.219000000     0.508000000     1.547000000
C    -5.704000000     0.818000000     0.308000000
C    -6.104000000     0.024000000    -0.726000000
H    -6.906000000    -0.694000000    -0.580000000
C    -5.696000000     0.156000000    -2.017000000
O    -6.301000000    -0.536000000    -3.052000000
C    -5.749000000    -1.036000000    -4.190000000
C    -4.912000000    -2.118000000    -4.142000000
H    -4.769000000    -2.700000000    -3.236000000
C    -5.707000000    -0.237000000    -5.341000000
H    -6.230000000     0.716000000    -5.323000000
C    -4.979000000    -0.626000000    -6.498000000
H    -4.993000000     0.008000000    -7.381000000
C    -4.057000000    -1.686000000    -6.360000000
H    -3.430000000    -1.995000000    -7.192000000
C    -4.068000000    -2.430000000    -5.214000000
O    -3.215000000    -3.494000000    -5.086000000
C    -1.899000000    -3.438000000    -4.615000000
C    -1.205000000    -4.686000000    -4.325000000
H    -1.775000000    -5.611000000    -4.320000000
C     0.062000000    -4.664000000    -3.854000000
O     0.673000000    -5.832000000    -3.476000000
C     1.874000000    -5.996000000    -2.887000000
C     3.012000000    -5.899000000    -3.686000000
H     2.958000000    -5.803000000    -4.767000000
C     4.287000000    -5.779000000    -3.169000000
H     5.084000000    -5.608000000    -3.889000000
C     4.469000000    -5.757000000    -1.752000000
H     5.410000000    -5.522000000    -1.260000000
C     3.331000000    -5.965000000    -0.924000000
C     2.025000000    -5.979000000    -1.492000000
H     1.219000000    -5.943000000    -0.762000000
C     0.225000000    -2.054000000     0.038000000
H     0.650000000    -2.963000000    -0.381000000
C     0.712000000    -0.745000000    -0.260000000
H     1.621000000    -0.652000000    -0.848000000
C     0.003000000     0.373000000     0.197000000
H     0.464000000     1.346000000    -0.034000000
C    -1.172000000     0.238000000     0.889000000
H    -1.755000000     1.148000000     1.007000000
C    -1.737000000    -1.000000000     0.996000000
H    -2.727000000    -1.002000000     1.446000000
C    -1.044000000    -2.179000000     0.602000000
C    -1.641000000    -3.530000000     0.889000000
O    -2.804000000    -3.545000000     1.269000000
O    -1.041000000    -4.537000000     0.653000000
O    -4.404000000    -5.633000000     1.402000000
H    -3.734000000    -6.238000000     1.720000000
H    -3.909000000    -4.891000000     1.052000000
O    -0.099000000    -8.530000000    -3.777000000
H     0.380000000    -8.909000000    -3.040000000
H    -0.043000000    -7.584000000    -3.638000000
O     0.354000000    -9.427000000     0.640000000
H     0.134000000    -8.797000000     1.326000000
H    -0.108000000   -10.227000000     0.891000000
O    -3.128000000    -8.586000000     1.262000000
H    -3.400000000    -9.190000000     1.953000000
H    -2.405000000    -8.091000000     1.648000000
O     0.667000000    -6.769000000     4.183000000
H     1.534000000    -7.051000000     4.474000000
H     0.061000000    -7.189000000     4.792000000
O    -6.320000000    -2.069000000     5.117000000
H    -5.651000000    -2.126000000     5.800000000
H    -5.884000000    -2.389000000     4.327000000
O    -7.026000000    -3.258000000     1.386000000
H    -7.588000000    -2.615000000     1.819000000
H    -6.961000000    -3.979000000     2.012000000
O    -1.226000000    -7.151000000     6.003000000
H    -1.396000000    -7.735000000     6.742000000
H    -1.241000000    -6.273000000     6.383000000
O    -4.440000000    -3.488000000     3.409000000
H    -4.150000000    -3.476000000     2.497000000
H    -3.763000000    -3.985000000     3.869000000
O    -9.003000000    -3.592000000    -0.661000000
H    -8.136000000    -3.399000000    -0.306000000
H    -9.462000000    -2.753000000    -0.642000000
O    -3.011000000    -5.384000000    -1.389000000
H    -2.297000000    -5.155000000    -0.794000000
H    -3.625000000    -4.653000000    -1.318000000
O    -1.431000000    -4.637000000     3.831000000
H    -0.846000000    -5.390000000     3.921000000
H    -1.507000000    -4.505000000     2.886000000
O    -4.790000000    -3.426000000    -0.428000000
H    -5.547000000    -3.492000000     0.153000000
H    -4.085000000    -3.101000000     0.132000000
O    -1.542000000    -4.287000000     6.532000000
H    -1.207000000    -3.414000000     6.733000000
H    -1.601000000    -4.308000000     5.577000000
O    -5.991000000    -9.002000000    -1.033000000
H    -5.959000000    -8.089000000    -0.746000000
H    -5.081000000    -9.220000000    -1.238000000
O    -0.822000000    -6.970000000     1.747000000
H    -0.935000000    -6.418000000     0.972000000
H    -0.205000000    -6.487000000     2.296000000
O    -6.422000000    -5.318000000     3.319000000
H    -5.865000000    -5.677000000     2.628000000
H    -5.987000000    -4.506000000     3.580000000
O    -6.575000000    -6.265000000    -0.743000000
H    -6.017000000    -6.181000000     0.030000000
H    -6.597000000    -5.385000000    -1.119000000
O    -3.259000000    -8.134000000    -1.721000000
H    -3.441000000    -7.233000000    -1.453000000
H    -2.611000000    -8.445000000    -1.089000000
