215
-1454.85413
C    -0.469000000     1.731000000     4.608000000
H    -1.082000000     2.327000000     3.937000000
C     0.929000000     1.704000000     4.397000000
C     1.681000000     0.846000000     5.255000000
H     2.725000000     0.772000000     4.960000000
C     1.535000000     2.487000000     3.257000000
O     0.799000000     3.728000000     3.140000000
H     1.364000000     1.905000000     2.339000000
O     2.979000000     2.772000000     3.336000000
C     3.638000000     2.392000000     2.225000000
C     4.024000000     1.081000000     2.080000000
H     4.059000000     0.423000000     2.945000000
C     4.490000000     0.599000000     0.851000000
O     4.744000000    -0.717000000     0.782000000
C     4.471000000     1.415000000    -0.250000000
C     5.131000000     0.938000000    -1.552000000
H     5.523000000     1.769000000    -2.141000000
C     4.150000000     0.279000000    -2.467000000
C     3.534000000     1.116000000    -3.386000000
H     3.797000000     2.163000000    -3.512000000
H     5.933000000     0.228000000    -1.336000000
C     4.038000000     2.736000000    -0.128000000
H     3.973000000     3.495000000    -0.903000000
C     3.633000000     3.264000000     1.084000000
C     2.970000000     4.648000000     1.234000000
H     3.484000000     5.317000000     0.540000000
H     3.052000000     5.095000000     2.226000000
C     1.467000000     4.543000000     0.946000000
C     1.103000000     4.840000000    -0.366000000
H     1.890000000     4.916000000    -1.112000000
C     0.468000000     4.150000000     1.854000000
C    -0.828000000     4.020000000     1.417000000
H    -1.600000000     3.597000000     2.054000000
C    -1.194000000     4.452000000     0.133000000
O    -2.479000000     4.302000000    -0.358000000
C    -2.884000000     3.016000000    -0.954000000
C    -4.164000000     2.463000000    -0.328000000
C    -4.731000000     1.413000000    -1.044000000
H    -4.348000000     1.198000000    -2.038000000
C    -4.682000000     2.703000000     0.981000000
H    -4.304000000     3.443000000     1.683000000
O    -2.946000000     3.223000000    -2.344000000
H    -2.040000000     2.325000000    -0.818000000
C    -0.208000000     4.896000000    -0.727000000
C    -0.537000000     5.073000000    -2.138000000
H     0.129000000     5.736000000    -2.695000000
H    -1.528000000     5.532000000    -2.104000000
C    -0.610000000     3.772000000    -2.975000000
C     0.531000000     3.368000000    -3.728000000
H     1.420000000     3.990000000    -3.665000000
C    -1.782000000     3.006000000    -3.035000000
C    -1.803000000     1.831000000    -3.765000000
H    -2.697000000     1.213000000    -3.791000000
C    -0.681000000     1.440000000    -4.529000000
O    -0.816000000     0.200000000    -5.054000000
C    -0.289000000    -0.953000000    -4.316000000
C    -1.159000000    -2.204000000    -4.450000000
C    -2.514000000    -2.020000000    -4.657000000
H    -2.954000000    -1.038000000    -4.813000000
C    -0.546000000    -3.464000000    -4.362000000
H     0.504000000    -3.563000000    -4.097000000
O     1.049000000    -1.246000000    -4.780000000
H    -0.219000000    -0.619000000    -3.270000000
C     0.540000000     2.135000000    -4.424000000
C     1.766000000     1.565000000    -5.108000000
H     2.359000000     2.442000000    -5.376000000
H     1.562000000     0.930000000    -5.973000000
C     2.540000000     0.620000000    -4.196000000
C     2.130000000    -0.715000000    -4.047000000
C     2.772000000    -1.626000000    -3.251000000
H     2.363000000    -2.610000000    -3.039000000
C     3.783000000    -1.065000000    -2.421000000
O     4.396000000    -1.780000000    -1.382000000
C     3.849000000    -1.588000000    -0.039000000
H     2.876000000    -1.115000000    -0.234000000
C     3.452000000    -2.880000000     0.644000000
C     3.655000000    -2.971000000     2.002000000
H     4.129000000    -2.196000000     2.600000000
C     2.741000000    -3.851000000    -0.105000000
H     2.524000000    -3.752000000    -1.165000000
C     2.335000000    -4.998000000     0.572000000
O     1.695000000    -6.060000000    -0.015000000
C     2.534000000    -5.162000000     1.962000000
H     2.262000000    -6.140000000     2.351000000
C     3.152000000    -4.111000000     2.666000000
O     3.295000000    -4.363000000     4.007000000
C     3.519000000    -3.502000000     5.097000000
C     2.569000000    -2.530000000     5.450000000
H     1.704000000    -2.384000000     4.809000000
C     4.622000000    -3.801000000     5.957000000
H     5.386000000    -4.520000000     5.672000000
C     4.824000000    -3.003000000     7.123000000
H     5.698000000    -3.219000000     7.732000000
C     3.843000000    -1.974000000     7.456000000
H     3.771000000    -1.464000000     8.413000000
C     2.798000000    -1.676000000     6.555000000
O     1.780000000    -0.786000000     6.955000000
C     1.123000000     0.040000000     6.213000000
C    -0.251000000     0.101000000     6.450000000
H    -0.769000000    -0.558000000     7.142000000
C    -1.047000000     0.946000000     5.634000000
O    -2.389000000     0.984000000     5.917000000
C    -3.247000000     1.905000000     5.380000000
C    -4.185000000     1.539000000     4.402000000
H    -4.060000000     0.549000000     3.970000000
C    -3.375000000     3.157000000     6.028000000
H    -2.659000000     3.426000000     6.801000000
C    -4.402000000     4.080000000     5.661000000
H    -4.597000000     4.939000000     6.298000000
C    -5.275000000     3.722000000     4.626000000
H    -5.981000000     4.505000000     4.361000000
C    -5.119000000     2.492000000     3.911000000
O    -6.015000000     2.178000000     2.905000000
C    -5.680000000     1.918000000     1.591000000
C    -6.202000000     0.876000000     0.865000000
H    -6.993000000     0.309000000     1.348000000
C    -5.706000000     0.631000000    -0.395000000
O    -6.281000000    -0.381000000    -1.155000000
C    -6.174000000    -0.557000000    -2.517000000
C    -5.646000000    -1.799000000    -2.929000000
H    -5.523000000    -2.645000000    -2.258000000
C    -6.394000000     0.517000000    -3.391000000
H    -6.753000000     1.498000000    -3.090000000
C    -6.262000000     0.303000000    -4.766000000
H    -6.604000000     1.041000000    -5.487000000
C    -5.601000000    -0.900000000    -5.136000000
H    -5.380000000    -1.087000000    -6.183000000
C    -5.353000000    -1.960000000    -4.255000000
O    -4.667000000    -3.081000000    -4.737000000
C    -3.330000000    -3.155000000    -4.553000000
C    -2.752000000    -4.361000000    -4.450000000
H    -3.353000000    -5.264000000    -4.377000000
C    -1.390000000    -4.557000000    -4.414000000
O    -0.937000000    -5.841000000    -4.043000000
C     0.260000000    -6.047000000    -3.343000000
C     1.382000000    -6.157000000    -4.137000000
H     1.131000000    -6.117000000    -5.194000000
C     2.667000000    -6.228000000    -3.575000000
H     3.517000000    -6.342000000    -4.244000000
C     2.750000000    -6.171000000    -2.170000000
H     3.708000000    -6.267000000    -1.665000000
C     1.621000000    -6.152000000    -1.363000000
C     0.337000000    -6.074000000    -1.922000000
H    -0.522000000    -5.889000000    -1.283000000
C    -1.078000000    -2.532000000    -0.714000000
H    -1.026000000    -3.576000000    -1.012000000
C     0.055000000    -1.752000000    -0.861000000
H     0.958000000    -2.165000000    -1.304000000
C     0.007000000    -0.423000000    -0.479000000
H     0.829000000     0.293000000    -0.626000000
C    -1.067000000     0.097000000     0.205000000
H    -1.084000000     1.128000000     0.547000000
C    -2.204000000    -0.705000000     0.347000000
H    -3.113000000    -0.331000000     0.812000000
C    -2.213000000    -1.998000000    -0.107000000
C    -3.441000000    -2.729000000     0.206000000
O    -4.101000000    -2.382000000     1.154000000
O    -3.583000000    -3.814000000    -0.182000000
O    -2.246000000    -2.483000000     3.528000000
H    -1.525000000    -3.086000000     3.707000000
H    -2.366000000    -2.527000000     2.579000000
O    -8.329000000    -3.045000000    -2.546000000
H    -7.645000000    -3.147000000    -1.884000000
H    -8.686000000    -2.172000000    -2.389000000
O    -3.192000000    -9.051000000     2.364000000
H    -4.029000000    -8.792000000     2.749000000
H    -2.823000000    -8.237000000     2.022000000
O    -4.367000000    -8.729000000    -1.203000000
H    -4.746000000    -9.582000000    -0.994000000
H    -5.055000000    -8.273000000    -1.689000000
O    -8.429000000    -0.983000000     2.941000000
H    -7.493000000    -1.165000000     3.020000000
H    -8.652000000    -0.519000000     3.748000000
O    -4.012000000    -1.941000000     5.564000000
H    -3.331000000    -1.901000000     4.893000000
H    -3.659000000    -2.534000000     6.228000000
O    -5.991000000    -1.794000000     3.702000000
H    -5.799000000    -1.630000000     4.625000000
H    -5.131000000    -1.850000000     3.285000000
O    -4.415000000    -5.877000000    -1.865000000
H    -4.549000000    -5.122000000    -2.438000000
H    -3.962000000    -5.521000000    -1.101000000
O    -5.377000000    -6.983000000     5.318000000
H    -5.598000000    -6.235000000     5.873000000
H    -4.632000000    -6.683000000     4.798000000
O    -2.897000000    -6.542000000     0.840000000
H    -2.816000000    -5.591000000     0.770000000
H    -3.840000000    -6.698000000     0.906000000
O    -5.898000000    -6.865000000     1.628000000
H    -6.264000000    -6.406000000     0.872000000
H    -5.792000000    -6.184000000     2.293000000
O     0.440000000    -2.053000000     2.427000000
H    -0.204000000    -1.488000000     2.854000000
H     0.355000000    -1.851000000     1.496000000
O    -5.013000000    -4.520000000     2.768000000
H    -5.753000000    -3.995000000     3.073000000
H    -4.636000000    -4.010000000     2.051000000
O    -0.570000000    -4.669000000     2.961000000
H    -0.213000000    -5.557000000     2.971000000
H     0.125000000    -4.136000000     2.576000000
O    -9.138000000    -6.194000000     0.481000000
H    -8.280000000    -5.884000000     0.193000000
H    -9.361000000    -5.631000000     1.222000000
O    -6.614000000    -5.495000000    -0.455000000
H    -6.590000000    -4.542000000    -0.535000000
H    -5.915000000    -5.802000000    -1.032000000
O    -6.907000000    -2.895000000     0.106000000
H    -6.131000000    -2.570000000     0.564000000
H    -7.632000000    -2.391000000     0.475000000
O    -1.824000000    -8.358000000    -0.497000000
H    -2.667000000    -8.448000000    -0.941000000
H    -1.960000000    -7.651000000     0.134000000
O    -2.800000000    -5.626000000     4.376000000
H    -3.533000000    -5.163000000     3.969000000
H    -2.022000000    -5.162000000     4.066000000
