215
-1433.83808
C    -1.911000000     0.804000000     4.391000000
H    -2.298000000     1.636000000     3.809000000
C    -0.613000000     0.664000000     4.518000000
C    -0.086000000    -0.384000000     5.217000000
H     0.997000000    -0.450000000     5.270000000
C     0.255000000     1.593000000     3.665000000
O    -0.201000000     2.955000000     3.711000000
H     0.131000000     1.142000000     2.669000000
O     1.634000000     1.558000000     4.057000000
C     2.625000000     1.390000000     3.114000000
C     3.273000000     0.203000000     2.869000000
H     2.763000000    -0.643000000     3.323000000
C     4.312000000     0.025000000     1.919000000
O     4.771000000    -1.225000000     1.620000000
C     4.678000000     1.188000000     1.225000000
C     5.689000000     1.085000000     0.107000000
H     6.255000000     1.981000000    -0.156000000
C     4.907000000     0.546000000    -1.136000000
C     4.343000000     1.530000000    -2.048000000
H     4.533000000     2.582000000    -1.856000000
H     6.485000000     0.368000000     0.317000000
C     4.146000000     2.382000000     1.619000000
H     4.468000000     3.305000000     1.144000000
C     3.155000000     2.578000000     2.475000000
C     2.520000000     3.943000000     2.755000000
H     3.177000000     4.767000000     2.468000000
H     2.318000000     3.931000000     3.827000000
C     1.211000000     4.121000000     2.075000000
C     1.233000000     4.724000000     0.787000000
H     2.151000000     5.017000000     0.283000000
C    -0.044000000     3.736000000     2.588000000
C    -1.185000000     3.859000000     1.823000000
H    -2.144000000     3.574000000     2.249000000
C    -1.123000000     4.474000000     0.641000000
O    -2.347000000     4.457000000    -0.092000000
C    -2.501000000     3.398000000    -1.035000000
C    -3.895000000     2.795000000    -0.944000000
C    -4.379000000     1.955000000    -1.967000000
H    -3.752000000     1.726000000    -2.825000000
C    -4.640000000     2.922000000     0.228000000
H    -4.221000000     3.500000000     1.048000000
O    -2.265000000     3.861000000    -2.434000000
H    -1.778000000     2.585000000    -0.867000000
C     0.087000000     4.786000000     0.032000000
C     0.101000000     5.427000000    -1.358000000
H     0.913000000     6.147000000    -1.486000000
H    -0.797000000     6.033000000    -1.494000000
C     0.119000000     4.321000000    -2.399000000
C     1.359000000     3.855000000    -2.770000000
H     2.163000000     4.301000000    -2.190000000
C    -1.018000000     3.747000000    -2.955000000
C    -0.859000000     2.678000000    -3.786000000
H    -1.706000000     2.031000000    -3.998000000
C     0.411000000     2.219000000    -4.135000000
O     0.472000000     0.922000000    -4.691000000
C     0.861000000    -0.174000000    -3.892000000
C    -0.203000000    -1.319000000    -4.049000000
C    -1.400000000    -1.116000000    -4.661000000
H    -1.702000000    -0.118000000    -4.970000000
C     0.180000000    -2.554000000    -3.532000000
H     1.111000000    -2.752000000    -3.007000000
O     2.195000000    -0.567000000    -4.151000000
H     0.912000000     0.134000000    -2.837000000
C     1.572000000     2.776000000    -3.631000000
C     2.949000000     2.349000000    -4.113000000
H     3.559000000     3.255000000    -4.135000000
H     2.919000000     1.992000000    -5.145000000
C     3.502000000     1.193000000    -3.176000000
C     3.236000000    -0.176000000    -3.317000000
C     3.788000000    -1.125000000    -2.476000000
H     3.405000000    -2.138000000    -2.577000000
C     4.585000000    -0.787000000    -1.422000000
O     4.942000000    -1.850000000    -0.632000000
C     4.128000000    -1.919000000     0.570000000
H     3.192000000    -1.373000000     0.380000000
C     3.833000000    -3.368000000     0.968000000
C     3.493000000    -3.742000000     2.240000000
H     3.577000000    -2.971000000     3.002000000
C     3.798000000    -4.410000000    -0.023000000
H     4.093000000    -4.235000000    -1.055000000
C     3.383000000    -5.704000000     0.316000000
O     3.021000000    -6.608000000    -0.671000000
C     2.910000000    -5.937000000     1.639000000
H     2.534000000    -6.929000000     1.879000000
C     3.015000000    -4.984000000     2.642000000
O     2.526000000    -5.261000000     3.883000000
C     2.302000000    -4.389000000     4.884000000
C     1.030000000    -4.028000000     5.176000000
H     0.153000000    -4.402000000     4.653000000
C     3.420000000    -3.954000000     5.543000000
H     4.427000000    -4.257000000     5.268000000
C     3.220000000    -3.113000000     6.645000000
H     4.098000000    -2.696000000     7.132000000
C     1.944000000    -2.526000000     6.830000000
H     1.808000000    -1.722000000     7.549000000
C     0.875000000    -3.015000000     6.086000000
O    -0.418000000    -2.520000000     6.321000000
C    -0.922000000    -1.348000000     5.796000000
C    -2.336000000    -1.140000000     5.696000000
H    -2.967000000    -1.809000000     6.275000000
C    -2.825000000    -0.077000000     5.023000000
O    -4.173000000    -0.019000000     4.662000000
C    -4.901000000     1.170000000     4.343000000
C    -5.442000000     1.273000000     3.065000000
H    -5.226000000     0.532000000     2.300000000
C    -5.116000000     2.141000000     5.317000000
H    -4.725000000     2.023000000     6.324000000
C    -5.786000000     3.311000000     4.949000000
H    -5.776000000     4.068000000     5.729000000
C    -6.367000000     3.372000000     3.706000000
H    -6.795000000     4.338000000     3.452000000
C    -6.204000000     2.381000000     2.716000000
O    -6.683000000     2.473000000     1.391000000
C    -5.908000000     2.363000000     0.289000000
C    -6.473000000     1.702000000    -0.762000000
H    -7.444000000     1.244000000    -0.599000000
C    -5.721000000     1.420000000    -1.871000000
O    -6.289000000     0.709000000    -2.972000000
C    -5.693000000     0.461000000    -4.185000000
C    -4.642000000    -0.500000000    -4.215000000
H    -4.172000000    -0.969000000    -3.354000000
C    -6.178000000     1.006000000    -5.355000000
H    -6.950000000     1.768000000    -5.280000000
C    -5.577000000     0.709000000    -6.603000000
H    -5.935000000     1.075000000    -7.562000000
C    -4.624000000    -0.307000000    -6.693000000
H    -4.470000000    -0.748000000    -7.674000000
C    -4.151000000    -0.943000000    -5.511000000
O    -3.403000000    -2.114000000    -5.595000000
C    -2.286000000    -2.161000000    -4.856000000
C    -1.847000000    -3.442000000    -4.487000000
H    -2.397000000    -4.329000000    -4.793000000
C    -0.644000000    -3.670000000    -3.866000000
O    -0.330000000    -4.915000000    -3.440000000
C     0.992000000    -5.280000000    -3.239000000
C     1.917000000    -5.091000000    -4.283000000
H     1.600000000    -4.768000000    -5.271000000
C     3.250000000    -5.506000000    -4.124000000
H     3.958000000    -5.375000000    -4.939000000
C     3.608000000    -6.125000000    -2.932000000
H     4.668000000    -6.348000000    -2.844000000
C     2.660000000    -6.190000000    -1.913000000
C     1.324000000    -5.863000000    -2.058000000
H     0.717000000    -6.077000000    -1.183000000
C     0.280000000    -3.607000000     0.479000000
H     0.631000000    -4.635000000     0.439000000
C     0.915000000    -2.627000000    -0.269000000
H     1.695000000    -2.930000000    -0.962000000
C     0.477000000    -1.314000000    -0.172000000
H     0.815000000    -0.486000000    -0.816000000
C    -0.512000000    -0.967000000     0.661000000
H    -0.988000000     0.005000000     0.559000000
C    -1.126000000    -1.867000000     1.441000000
H    -1.990000000    -1.583000000     2.036000000
C    -0.733000000    -3.218000000     1.381000000
C    -1.427000000    -4.324000000     2.224000000
O    -2.189000000    -4.025000000     3.177000000
O    -1.099000000    -5.469000000     2.067000000
O    -2.096000000    -7.454000000     3.268000000
H    -1.599000000    -7.653000000     4.062000000
H    -1.682000000    -6.665000000     2.918000000
O    -5.063000000    -6.307000000    -0.034000000
H    -5.931000000    -5.916000000    -0.132000000
H    -4.908000000    -6.313000000     0.910000000
O    -3.928000000    -8.523000000    -1.048000000
H    -4.280000000    -7.666000000    -0.807000000
H    -3.586000000    -8.881000000    -0.229000000
O    -0.492000000    -8.690000000     5.145000000
H    -0.651000000    -9.121000000     5.985000000
H    -0.718000000    -9.351000000     4.491000000
O    -7.482000000    -1.963000000     4.196000000
H    -7.425000000    -1.482000000     5.021000000
H    -6.671000000    -2.471000000     4.158000000
O    -5.571000000    -2.754000000     0.456000000
H    -4.692000000    -2.538000000     0.145000000
H    -6.124000000    -2.681000000    -0.321000000
O    -4.751000000    -2.543000000     3.345000000
H    -3.870000000    -2.908000000     3.422000000
H    -5.007000000    -2.725000000     2.441000000
O    -3.408000000    -9.819000000     1.682000000
H    -2.531000000   -10.173000000     1.833000000
H    -3.463000000    -9.061000000     2.264000000
O     1.371000000    -6.923000000     6.853000000
H     0.947000000    -7.181000000     6.035000000
H     2.288000000    -6.784000000     6.615000000
O    -4.307000000    -6.581000000     5.652000000
H    -4.049000000    -5.669000000     5.516000000
H    -3.508000000    -7.083000000     5.492000000
O    -6.808000000    -4.568000000     1.927000000
H    -6.085000000    -4.858000000     2.484000000
H    -6.447000000    -3.839000000     1.424000000
O    -2.109000000    -4.799000000     5.644000000
H    -1.547000000    -4.146000000     6.062000000
H    -2.102000000    -4.562000000     4.717000000
O    -3.870000000    -5.375000000    -2.477000000
H    -4.187000000    -5.511000000    -1.585000000
H    -3.171000000    -6.021000000    -2.584000000
O    -5.423000000    -3.108000000     5.830000000
H    -5.779000000    -2.304000000     6.210000000
H    -5.205000000    -2.870000000     4.929000000
O     0.308000000    -7.879000000     1.698000000
H    -0.096000000    -7.020000000     1.818000000
H    -0.336000000    -8.497000000     2.046000000
O    -2.851000000    -2.772000000    -0.914000000
H    -2.533000000    -3.662000000    -1.064000000
H    -2.089000000    -2.300000000    -0.577000000
O    -4.313000000    -5.558000000     2.654000000
H    -3.400000000    -5.298000000     2.777000000
H    -4.388000000    -6.393000000     3.116000000
O     0.123000000    -9.219000000    -0.574000000
H     1.017000000    -9.544000000    -0.469000000
H     0.031000000    -8.550000000     0.105000000
O     2.458000000    -9.453000000     1.589000000
H     2.729000000    -9.614000000     2.493000000
H     1.616000000    -9.004000000     1.667000000
