215
-1458.09038
C    -1.344000000     0.274000000     5.002000000
H    -1.889000000     1.161000000     4.690000000
C     0.067000000     0.119000000     4.912000000
C     0.705000000    -1.080000000     5.159000000
H     1.754000000    -1.203000000     4.901000000
C     0.864000000     1.190000000     4.176000000
O     0.349000000     2.488000000     4.413000000
H     0.815000000     1.105000000     3.081000000
O     2.281000000     1.183000000     4.481000000
C     3.097000000     1.285000000     3.422000000
C     3.651000000     0.089000000     2.837000000
H     3.318000000    -0.878000000     3.207000000
C     4.303000000     0.253000000     1.662000000
O     4.746000000    -0.972000000     1.139000000
C     4.543000000     1.502000000     1.046000000
C     5.210000000     1.579000000    -0.289000000
H     5.613000000     2.585000000    -0.424000000
C     4.250000000     1.287000000    -1.514000000
C     3.769000000     2.276000000    -2.256000000
H     3.982000000     3.308000000    -1.988000000
H     6.029000000     0.857000000    -0.313000000
C     4.051000000     2.632000000     1.683000000
H     4.183000000     3.626000000     1.262000000
C     3.373000000     2.574000000     2.811000000
C     2.668000000     3.872000000     3.273000000
H     3.332000000     4.696000000     3.002000000
H     2.617000000     3.845000000     4.364000000
C     1.280000000     3.928000000     2.685000000
C     1.020000000     4.685000000     1.468000000
H     1.856000000     5.190000000     0.993000000
C     0.162000000     3.393000000     3.400000000
C    -1.098000000     3.458000000     2.871000000
H    -1.925000000     2.816000000     3.165000000
C    -1.314000000     4.140000000     1.686000000
O    -2.558000000     4.188000000     1.055000000
C    -2.852000000     3.355000000    -0.096000000
C    -4.155000000     2.573000000     0.063000000
C    -4.642000000     1.773000000    -0.959000000
H    -4.088000000     1.779000000    -1.894000000
C    -4.756000000     2.450000000     1.345000000
H    -4.405000000     3.103000000     2.140000000
O    -2.783000000     4.036000000    -1.325000000
H    -2.007000000     2.651000000    -0.089000000
C    -0.254000000     4.805000000     0.973000000
C    -0.500000000     5.468000000    -0.419000000
H     0.391000000     6.092000000    -0.509000000
H    -1.399000000     6.087000000    -0.392000000
C    -0.464000000     4.530000000    -1.607000000
C     0.757000000     4.295000000    -2.351000000
H     1.713000000     4.730000000    -2.070000000
C    -1.571000000     3.823000000    -1.989000000
C    -1.494000000     2.981000000    -3.115000000
H    -2.425000000     2.505000000    -3.410000000
C    -0.322000000     2.726000000    -3.821000000
O    -0.347000000     1.712000000    -4.723000000
C     0.197000000     0.386000000    -4.284000000
C    -0.546000000    -0.721000000    -4.957000000
C    -1.849000000    -0.596000000    -5.257000000
H    -2.354000000     0.351000000    -5.084000000
C     0.070000000    -1.988000000    -5.080000000
H     1.143000000    -2.105000000    -4.946000000
O     1.569000000     0.361000000    -4.643000000
H     0.075000000     0.339000000    -3.192000000
C     0.814000000     3.385000000    -3.377000000
C     2.176000000     3.089000000    -4.087000000
H     2.846000000     3.951000000    -4.100000000
H     1.861000000     2.892000000    -5.114000000
C     2.877000000     1.987000000    -3.332000000
C     2.535000000     0.696000000    -3.711000000
C     3.253000000    -0.325000000    -3.006000000
H     3.055000000    -1.365000000    -3.255000000
C     4.043000000    -0.037000000    -1.945000000
O     4.600000000    -1.089000000    -1.198000000
C     4.046000000    -1.534000000     0.017000000
H     3.064000000    -1.039000000     0.011000000
C     3.766000000    -3.017000000     0.080000000
C     3.606000000    -3.685000000     1.273000000
H     3.778000000    -3.133000000     2.194000000
C     3.566000000    -3.766000000    -1.072000000
H     3.581000000    -3.217000000    -2.010000000
C     3.266000000    -5.107000000    -1.029000000
O     3.174000000    -5.862000000    -2.179000000
C     3.026000000    -5.787000000     0.178000000
H     2.676000000    -6.806000000     0.315000000
C     3.237000000    -5.052000000     1.346000000
O     3.070000000    -5.720000000     2.549000000
C     2.966000000    -5.026000000     3.755000000
C     1.813000000    -4.391000000     4.110000000
H     1.016000000    -4.450000000     3.374000000
C     4.065000000    -4.919000000     4.651000000
H     4.965000000    -5.495000000     4.454000000
C     3.974000000    -4.305000000     5.896000000
H     4.789000000    -4.272000000     6.615000000
C     2.740000000    -3.731000000     6.235000000
H     2.599000000    -3.374000000     7.252000000
C     1.698000000    -3.764000000     5.315000000
O     0.387000000    -3.385000000     5.626000000
C    -0.036000000    -2.102000000     5.586000000
C    -1.403000000    -1.937000000     5.852000000
H    -1.987000000    -2.782000000     6.208000000
C    -2.035000000    -0.816000000     5.454000000
O    -3.447000000    -0.837000000     5.406000000
C    -4.174000000     0.327000000     5.355000000
C    -5.040000000     0.456000000     4.240000000
H    -5.027000000    -0.361000000     3.523000000
C    -4.269000000     1.343000000     6.288000000
H    -3.617000000     1.358000000     7.158000000
C    -5.183000000     2.406000000     6.158000000
H    -5.276000000     3.102000000     6.988000000
C    -5.930000000     2.569000000     4.998000000
H    -6.546000000     3.456000000     4.871000000
C    -5.809000000     1.575000000     4.040000000
O    -6.499000000     1.539000000     2.828000000
C    -5.826000000     1.517000000     1.606000000
C    -6.377000000     0.816000000     0.450000000
H    -7.035000000    -0.031000000     0.626000000
C    -5.741000000     0.949000000    -0.798000000
O    -5.863000000     0.001000000    -1.773000000
C    -5.781000000     0.064000000    -3.123000000
C    -4.833000000    -0.755000000    -3.818000000
H    -4.237000000    -1.434000000    -3.213000000
C    -6.575000000     0.918000000    -3.841000000
H    -7.270000000     1.562000000    -3.309000000
C    -6.346000000     1.098000000    -5.161000000
H    -6.976000000     1.804000000    -5.696000000
C    -5.503000000     0.280000000    -5.897000000
H    -5.388000000     0.295000000    -6.978000000
C    -4.718000000    -0.671000000    -5.204000000
O    -3.962000000    -1.552000000    -5.900000000
C    -2.606000000    -1.713000000    -5.666000000
C    -2.014000000    -2.939000000    -5.773000000
H    -2.634000000    -3.774000000    -6.091000000
C    -0.642000000    -3.057000000    -5.439000000
O    -0.069000000    -4.322000000    -5.532000000
C     1.235000000    -4.615000000    -5.121000000
C     2.213000000    -4.586000000    -6.126000000
H     1.925000000    -4.439000000    -7.164000000
C     3.571000000    -4.864000000    -5.784000000
H     4.355000000    -4.878000000    -6.537000000
C     3.868000000    -5.240000000    -4.426000000
H     4.894000000    -5.505000000    -4.186000000
C     2.880000000    -5.368000000    -3.464000000
C     1.573000000    -5.004000000    -3.785000000
H     0.817000000    -5.166000000    -3.021000000
C     0.356000000    -1.643000000    -0.456000000
H     0.867000000    -2.197000000    -1.239000000
C     0.483000000    -0.229000000    -0.531000000
H     1.102000000     0.331000000    -1.227000000
C    -0.216000000     0.549000000     0.382000000
H    -0.163000000     1.574000000     0.369000000
C    -1.005000000    -0.078000000     1.369000000
H    -1.693000000     0.436000000     2.035000000
C    -1.070000000    -1.426000000     1.448000000
H    -1.708000000    -1.897000000     2.191000000
C    -0.435000000    -2.235000000     0.517000000
C    -0.583000000    -3.755000000     0.505000000
O    -1.201000000    -4.184000000     1.455000000
O    -0.395000000    -4.407000000    -0.485000000
O    -2.360000000    -7.430000000    -0.908000000
H    -2.978000000    -6.745000000    -0.653000000
H    -2.060000000    -7.171000000    -1.778000000
O    -6.269000000    -5.464000000     1.808000000
H    -5.495000000    -5.353000000     1.256000000
H    -5.934000000    -5.860000000     2.612000000
O    -1.870000000    -6.506000000    -3.384000000
H    -1.664000000    -5.579000000    -3.508000000
H    -1.471000000    -6.942000000    -4.137000000
O     0.256000000    -6.987000000    -0.824000000
H    -0.672000000    -7.159000000    -0.667000000
H     0.314000000    -6.034000000    -0.897000000
O     3.915000000    -8.509000000     2.219000000
H     4.018000000    -7.593000000     1.962000000
H     4.769000000    -8.754000000     2.576000000
O    -4.130000000    -2.417000000     2.698000000
H    -4.424000000    -3.269000000     2.376000000
H    -3.455000000    -2.626000000     3.344000000
O    -4.748000000    -5.652000000     4.872000000
H    -5.104000000    -6.104000000     5.638000000
H    -4.608000000    -4.753000000     5.169000000
O    -0.017000000   -10.176000000     1.812000000
H    -0.434000000    -9.784000000     1.045000000
H     0.228000000    -9.430000000     2.359000000
O    -4.110000000    -2.159000000    -0.342000000
H    -4.597000000    -1.767000000     0.383000000
H    -3.810000000    -1.412000000    -0.860000000
O    -3.923000000    -4.894000000     0.498000000
H    -3.194000000    -4.954000000     1.115000000
H    -3.697000000    -4.159000000    -0.071000000
O    -3.281000000    -9.162000000     1.430000000
H    -2.900000000    -8.510000000     2.018000000
H    -3.033000000    -8.867000000     0.554000000
O    -4.709000000    -5.256000000    -3.272000000
H    -3.811000000    -4.943000000    -3.165000000
H    -5.234000000    -4.459000000    -3.343000000
O    -6.072000000    -7.216000000    -1.225000000
H    -5.437000000    -6.508000000    -1.330000000
H    -6.921000000    -6.774000000    -1.198000000
O    -2.084000000    -4.087000000     3.796000000
H    -1.371000000    -3.652000000     4.264000000
H    -1.750000000    -4.204000000     2.907000000
O    -2.542000000    -3.758000000    -2.233000000
H    -1.813000000    -3.701000000    -1.615000000
H    -3.273000000    -3.338000000    -1.780000000
O     0.606000000    -7.581000000     2.435000000
H    -0.008000000    -7.038000000     1.942000000
H     1.460000000    -7.177000000     2.283000000
O     1.511000000    -9.008000000    -2.140000000
H     1.778000000    -9.501000000    -1.363000000
H     0.958000000    -8.306000000    -1.799000000
O    -2.394000000    -0.577000000    -1.672000000
H    -2.064000000    -1.295000000    -2.213000000
H    -1.796000000    -0.546000000    -0.925000000
O    -2.945000000    -6.581000000     3.005000000
H    -2.265000000    -5.933000000     3.188000000
H    -3.624000000    -6.406000000     3.657000000
