215
-1437.55496
C    -0.723000000     0.056000000     4.938000000
H    -1.124000000     0.979000000     4.527000000
C     0.630000000    -0.151000000     4.678000000
C     1.120000000    -1.389000000     5.057000000
H     2.129000000    -1.608000000     4.716000000
C     1.511000000     0.874000000     3.881000000
O     1.315000000     2.207000000     4.291000000
H     1.203000000     0.822000000     2.827000000
O     2.959000000     0.587000000     4.041000000
C     3.712000000     0.580000000     2.918000000
C     3.903000000    -0.722000000     2.405000000
H     3.518000000    -1.630000000     2.861000000
C     4.446000000    -0.765000000     1.148000000
O     4.492000000    -1.974000000     0.531000000
C     4.941000000     0.406000000     0.531000000
C     5.600000000     0.297000000    -0.844000000
H     6.152000000     1.237000000    -0.915000000
C     4.599000000     0.210000000    -2.009000000
C     4.093000000     1.457000000    -2.442000000
H     4.541000000     2.381000000    -2.088000000
H     6.324000000    -0.517000000    -0.923000000
C     4.732000000     1.695000000     1.007000000
H     5.013000000     2.559000000     0.411000000
C     4.058000000     1.707000000     2.208000000
C     3.676000000     3.041000000     2.747000000
H     4.407000000     3.772000000     2.396000000
H     3.784000000     3.023000000     3.834000000
C     2.269000000     3.399000000     2.446000000
C     2.050000000     4.218000000     1.297000000
H     2.897000000     4.439000000     0.653000000
C     1.198000000     3.063000000     3.233000000
C    -0.095000000     3.514000000     2.832000000
H    -0.967000000     3.075000000     3.308000000
C    -0.302000000     4.305000000     1.705000000
O    -1.591000000     4.476000000     1.327000000
C    -2.132000000     3.826000000     0.229000000
C    -3.625000000     3.450000000     0.326000000
C    -4.614000000     3.596000000    -0.718000000
H    -4.353000000     3.980000000    -1.702000000
C    -4.012000000     2.862000000     1.554000000
H    -3.215000000     2.667000000     2.267000000
O    -1.876000000     4.689000000    -0.928000000
H    -1.587000000     2.886000000     0.057000000
C     0.806000000     4.769000000     0.991000000
C     0.657000000     5.761000000    -0.215000000
H     1.556000000     6.374000000    -0.305000000
H    -0.215000000     6.362000000     0.049000000
C     0.427000000     4.883000000    -1.455000000
C     1.496000000     4.382000000    -2.232000000
H     2.537000000     4.577000000    -1.985000000
C    -0.840000000     4.491000000    -1.823000000
C    -1.069000000     3.679000000    -2.942000000
H    -2.081000000     3.416000000    -3.239000000
C     0.017000000     3.123000000    -3.590000000
O    -0.224000000     2.118000000    -4.505000000
C     0.089000000     0.808000000    -4.067000000
C    -0.993000000    -0.202000000    -4.305000000
C    -2.334000000     0.072000000    -4.031000000
H    -2.491000000     1.027000000    -3.537000000
C    -0.660000000    -1.549000000    -4.769000000
H     0.343000000    -1.898000000    -5.002000000
O     1.375000000     0.410000000    -4.644000000
H     0.265000000     0.863000000    -2.983000000
C     1.364000000     3.548000000    -3.319000000
C     2.593000000     2.890000000    -4.012000000
H     3.307000000     3.715000000    -4.063000000
H     2.363000000     2.855000000    -5.079000000
C     3.087000000     1.545000000    -3.449000000
C     2.489000000     0.390000000    -3.914000000
C     3.031000000    -0.844000000    -3.487000000
H     2.587000000    -1.741000000    -3.913000000
C     4.067000000    -0.968000000    -2.538000000
O     4.204000000    -2.102000000    -1.870000000
C     3.599000000    -2.270000000    -0.512000000
H     2.820000000    -1.500000000    -0.409000000
C     2.986000000    -3.664000000    -0.422000000
C     2.672000000    -4.217000000     0.840000000
H     2.895000000    -3.650000000     1.740000000
C     2.605000000    -4.406000000    -1.509000000
H     2.831000000    -4.026000000    -2.502000000
C     1.953000000    -5.629000000    -1.427000000
O     1.401000000    -6.312000000    -2.464000000
C     1.804000000    -6.180000000    -0.203000000
H     1.257000000    -7.118000000    -0.145000000
C     2.131000000    -5.493000000     0.932000000
O     1.801000000    -6.118000000     2.124000000
C     2.140000000    -5.717000000     3.428000000
C     1.406000000    -4.735000000     4.044000000
H     0.511000000    -4.416000000     3.517000000
C     3.230000000    -6.303000000     4.065000000
H     3.825000000    -7.100000000     3.625000000
C     3.449000000    -5.945000000     5.409000000
H     4.245000000    -6.417000000     5.980000000
C     2.613000000    -5.021000000     6.085000000
H     2.748000000    -4.731000000     7.124000000
C     1.650000000    -4.353000000     5.373000000
O     0.827000000    -3.569000000     6.100000000
C     0.299000000    -2.368000000     5.645000000
C    -1.025000000    -2.069000000     6.033000000
H    -1.718000000    -2.762000000     6.504000000
C    -1.571000000    -0.870000000     5.623000000
O    -2.897000000    -0.601000000     5.867000000
C    -3.566000000     0.528000000     5.592000000
C    -4.371000000     0.679000000     4.504000000
H    -4.515000000    -0.182000000     3.857000000
C    -3.390000000     1.625000000     6.437000000
H    -2.814000000     1.481000000     7.348000000
C    -3.933000000     2.876000000     6.205000000
H    -3.913000000     3.678000000     6.939000000
C    -4.863000000     2.940000000     5.096000000
H    -5.334000000     3.869000000     4.785000000
C    -4.960000000     1.894000000     4.205000000
O    -5.752000000     2.004000000     3.049000000
C    -5.311000000     2.426000000     1.755000000
C    -6.299000000     2.652000000     0.731000000
H    -7.312000000     2.364000000     1.000000000
C    -5.911000000     3.156000000    -0.510000000
O    -6.756000000     3.128000000    -1.598000000
C    -6.498000000     2.309000000    -2.666000000
C    -5.711000000     1.170000000    -2.622000000
H    -5.302000000     0.762000000    -1.701000000
C    -7.013000000     2.737000000    -3.940000000
H    -7.582000000     3.659000000    -4.026000000
C    -6.703000000     2.019000000    -5.091000000
H    -6.962000000     2.362000000    -6.090000000
C    -5.933000000     0.878000000    -4.995000000
H    -5.661000000     0.437000000    -5.950000000
C    -5.339000000     0.509000000    -3.788000000
O    -4.646000000    -0.673000000    -3.803000000
C    -3.331000000    -0.922000000    -4.140000000
C    -2.996000000    -2.169000000    -4.618000000
H    -3.795000000    -2.905000000    -4.612000000
C    -1.678000000    -2.473000000    -4.965000000
O    -1.484000000    -3.749000000    -5.407000000
C    -0.275000000    -4.419000000    -5.202000000
C     0.581000000    -4.654000000    -6.237000000
H     0.369000000    -4.312000000    -7.247000000
C     1.746000000    -5.284000000    -6.017000000
H     2.443000000    -5.405000000    -6.842000000
C     2.029000000    -5.936000000    -4.780000000
H     2.920000000    -6.554000000    -4.696000000
C     1.176000000    -5.675000000    -3.703000000
C     0.049000000    -4.913000000    -3.939000000
H    -0.657000000    -4.669000000    -3.149000000
C    -1.330000000    -2.162000000    -1.173000000
H    -1.573000000    -3.058000000    -1.738000000
C    -0.080000000    -1.559000000    -1.353000000
H     0.515000000    -1.920000000    -2.188000000
C     0.316000000    -0.473000000    -0.597000000
H     1.299000000    -0.225000000    -0.790000000
C    -0.522000000     0.098000000     0.419000000
H    -0.189000000     0.892000000     1.082000000
C    -1.790000000    -0.510000000     0.582000000
H    -2.434000000    -0.063000000     1.334000000
C    -2.210000000    -1.664000000    -0.170000000
C    -3.530000000    -2.320000000     0.141000000
O    -4.150000000    -2.043000000     1.165000000
O    -3.928000000    -3.170000000    -0.638000000
O    -2.070000000    -5.371000000     2.436000000
H    -2.705000000    -5.807000000     3.003000000
H    -2.107000000    -5.862000000     1.614000000
O    -6.259000000    -2.909000000    -1.887000000
H    -6.777000000    -2.529000000    -1.178000000
H    -5.356000000    -2.870000000    -1.572000000
O    -3.898000000    -5.686000000    -4.076000000
H    -3.760000000    -4.760000000    -4.277000000
H    -3.774000000    -5.747000000    -3.129000000
O    -5.701000000    -4.964000000     1.737000000
H    -5.215000000    -5.711000000     2.088000000
H    -5.052000000    -4.263000000     1.676000000
O    -7.992000000     0.137000000     3.929000000
H    -7.329000000    -0.219000000     3.337000000
H    -8.745000000    -0.445000000     3.823000000
O    -7.146000000    -2.334000000    -4.569000000
H    -6.730000000    -2.211000000    -3.716000000
H    -6.422000000    -2.530000000    -5.163000000
O    -8.444000000    -5.125000000     1.267000000
H    -8.182000000    -5.711000000     0.557000000
H    -7.621000000    -4.760000000     1.592000000
O    -8.005000000    -1.361000000    -0.216000000
H    -8.450000000    -0.614000000    -0.615000000
H    -8.713000000    -1.912000000     0.118000000
O    -5.556000000    -2.557000000     4.405000000
H    -5.830000000    -1.957000000     3.711000000
H    -4.762000000    -2.969000000     4.065000000
O    -4.227000000    -6.914000000     3.253000000
H    -4.099000000    -7.840000000     3.047000000
H    -3.959000000    -6.834000000     4.168000000
O    -3.528000000    -5.727000000    -1.402000000
H    -3.592000000    -4.779000000    -1.290000000
H    -3.401000000    -6.066000000    -0.516000000
O    -2.883000000    -4.778000000     6.385000000
H    -2.862000000    -5.725000000     6.245000000
H    -2.534000000    -4.408000000     5.574000000
O    -6.737000000    -6.016000000    -0.788000000
H    -6.177000000    -5.361000000    -0.373000000
H    -6.913000000    -5.663000000    -1.660000000
O    -6.291000000    -0.853000000     2.086000000
H    -6.920000000    -0.719000000     1.377000000
H    -5.500000000    -1.167000000     1.648000000
O    -7.510000000    -4.415000000     4.302000000
H    -7.429000000    -5.162000000     3.708000000
H    -6.656000000    -3.984000000     4.262000000
O    -3.229000000    -3.133000000     3.342000000
H    -3.543000000    -2.704000000     2.545000000
H    -2.568000000    -3.753000000     3.035000000
O    -7.399000000    -8.121000000     0.771000000
H    -7.121000000    -7.450000000     0.148000000
H    -8.091000000    -7.702000000     1.282000000
O    -2.696000000    -7.374000000     0.594000000
H    -3.053000000    -7.911000000     1.302000000
H    -2.159000000    -7.978000000     0.082000000
O    -7.953000000    -4.916000000    -3.083000000
H    -8.638000000    -4.260000000    -3.213000000
H    -7.161000000    -4.404000000    -2.914000000
