215
-1445.07951
C    -0.386000000     0.156000000     4.941000000
H    -0.862000000     1.132000000     4.894000000
C     0.902000000    -0.078000000     4.414000000
C     1.370000000    -1.442000000     4.338000000
H     2.231000000    -1.666000000     3.714000000
C     1.655000000     0.920000000     3.629000000
O     1.215000000     2.304000000     3.939000000
H     1.447000000     0.720000000     2.567000000
O     3.064000000     0.768000000     3.736000000
C     3.745000000     1.004000000     2.477000000
C     4.142000000    -0.162000000     1.813000000
H     3.993000000    -1.172000000     2.186000000
C     4.526000000    -0.105000000     0.458000000
O     4.682000000    -1.291000000    -0.211000000
C     4.782000000     1.153000000    -0.146000000
C     5.210000000     1.084000000    -1.598000000
H     5.751000000     1.974000000    -1.927000000
C     4.079000000     0.905000000    -2.536000000
C     3.408000000     2.078000000    -3.038000000
H     3.737000000     3.082000000    -2.783000000
H     5.865000000     0.215000000    -1.685000000
C     4.471000000     2.323000000     0.563000000
H     4.578000000     3.309000000     0.118000000
C     3.982000000     2.251000000     1.869000000
C     3.387000000     3.423000000     2.602000000
H     3.995000000     4.303000000     2.380000000
H     3.452000000     3.282000000     3.683000000
C     1.913000000     3.710000000     2.232000000
C     1.669000000     4.491000000     1.074000000
H     2.441000000     4.901000000     0.428000000
C     0.874000000     3.155000000     2.942000000
C    -0.387000000     3.594000000     2.825000000
H    -1.173000000     3.229000000     3.481000000
C    -0.621000000     4.373000000     1.729000000
O    -1.996000000     4.649000000     1.438000000
C    -2.590000000     3.786000000     0.554000000
C    -3.919000000     3.207000000     1.057000000
C    -4.664000000     2.447000000     0.090000000
H    -4.398000000     2.419000000    -0.964000000
C    -4.227000000     3.102000000     2.434000000
H    -3.544000000     3.557000000     3.147000000
O    -2.647000000     4.377000000    -0.753000000
H    -1.870000000     2.958000000     0.472000000
C     0.373000000     4.899000000     0.886000000
C     0.090000000     5.686000000    -0.388000000
H     0.952000000     6.293000000    -0.670000000
H    -0.684000000     6.432000000    -0.198000000
C    -0.318000000     4.769000000    -1.505000000
C     0.672000000     4.393000000    -2.446000000
H     1.672000000     4.749000000    -2.211000000
C    -1.602000000     4.140000000    -1.645000000
C    -1.793000000     3.247000000    -2.706000000
H    -2.784000000     2.818000000    -2.835000000
C    -0.853000000     2.887000000    -3.649000000
O    -1.097000000     1.820000000    -4.488000000
C    -0.574000000     0.490000000    -4.111000000
C    -1.598000000    -0.668000000    -4.357000000
C    -3.007000000    -0.390000000    -4.328000000
H    -3.248000000     0.652000000    -4.131000000
C    -1.148000000    -1.997000000    -4.457000000
H    -0.097000000    -2.238000000    -4.320000000
O     0.731000000     0.377000000    -4.760000000
H    -0.345000000     0.551000000    -3.037000000
C     0.441000000     3.524000000    -3.550000000
C     1.612000000     3.120000000    -4.416000000
H     2.241000000     4.004000000    -4.539000000
H     1.223000000     2.848000000    -5.400000000
C     2.265000000     1.907000000    -3.765000000
C     1.859000000     0.604000000    -4.136000000
C     2.545000000    -0.522000000    -3.738000000
H     2.248000000    -1.510000000    -4.080000000
C     3.613000000    -0.360000000    -2.894000000
O     4.108000000    -1.523000000    -2.399000000
C     3.683000000    -1.820000000    -1.064000000
H     2.691000000    -1.397000000    -0.847000000
C     3.531000000    -3.302000000    -0.910000000
C     3.743000000    -3.917000000     0.355000000
H     4.073000000    -3.289000000     1.179000000
C     3.061000000    -4.119000000    -1.999000000
H     2.952000000    -3.618000000    -2.957000000
C     2.869000000    -5.464000000    -1.881000000
O     2.337000000    -6.260000000    -2.835000000
C     3.146000000    -6.040000000    -0.631000000
H     3.027000000    -7.114000000    -0.515000000
C     3.572000000    -5.263000000     0.448000000
O     3.755000000    -6.009000000     1.590000000
C     3.676000000    -5.426000000     2.825000000
C     2.487000000    -4.852000000     3.234000000
H     1.679000000    -4.867000000     2.508000000
C     4.675000000    -5.606000000     3.786000000
H     5.594000000    -6.129000000     3.532000000
C     4.542000000    -5.093000000     5.043000000
H     5.363000000    -5.177000000     5.751000000
C     3.375000000    -4.368000000     5.383000000
H     3.248000000    -3.956000000     6.382000000
C     2.294000000    -4.323000000     4.493000000
O     1.084000000    -3.756000000     4.908000000
C     0.658000000    -2.460000000     5.015000000
C    -0.463000000    -2.151000000     5.780000000
H    -0.943000000    -2.970000000     6.309000000
C    -1.041000000    -0.859000000     5.706000000
O    -2.324000000    -0.602000000     6.181000000
C    -3.048000000     0.589000000     6.153000000
C    -3.974000000     0.877000000     5.170000000
H    -4.282000000     0.122000000     4.451000000
C    -2.782000000     1.588000000     7.131000000
H    -1.977000000     1.427000000     7.843000000
C    -3.470000000     2.802000000     7.112000000
H    -3.338000000     3.579000000     7.861000000
C    -4.530000000     2.997000000     6.174000000
H    -5.265000000     3.796000000     6.234000000
C    -4.736000000     2.068000000     5.164000000
O    -5.704000000     2.306000000     4.180000000
C    -5.318000000     2.346000000     2.846000000
C    -6.112000000     1.652000000     1.898000000
H    -6.924000000     1.025000000     2.258000000
C    -5.712000000     1.599000000     0.609000000
O    -6.321000000     0.717000000    -0.261000000
C    -6.248000000     0.840000000    -1.633000000
C    -5.566000000    -0.263000000    -2.309000000
H    -5.038000000    -1.047000000    -1.772000000
C    -6.888000000     1.861000000    -2.346000000
H    -7.334000000     2.690000000    -1.804000000
C    -6.946000000     1.754000000    -3.773000000
H    -7.284000000     2.616000000    -4.343000000
C    -6.337000000     0.625000000    -4.406000000
H    -6.250000000     0.483000000    -5.480000000
C    -5.752000000    -0.411000000    -3.671000000
O    -5.178000000    -1.401000000    -4.341000000
C    -3.861000000    -1.505000000    -4.390000000
C    -3.374000000    -2.840000000    -4.535000000
H    -4.048000000    -3.690000000    -4.600000000
C    -2.032000000    -3.067000000    -4.507000000
O    -1.687000000    -4.423000000    -4.591000000
C    -0.396000000    -4.886000000    -4.724000000
C     0.182000000    -4.590000000    -5.942000000
H    -0.428000000    -4.117000000    -6.707000000
C     1.530000000    -4.888000000    -6.154000000
H     2.013000000    -4.472000000    -7.034000000
C     2.289000000    -5.410000000    -5.066000000
H     3.369000000    -5.377000000    -5.182000000
C     1.626000000    -5.775000000    -3.897000000
C     0.268000000    -5.605000000    -3.783000000
H    -0.308000000    -5.883000000    -2.904000000
C    -1.076000000    -1.773000000    -0.541000000
H    -1.354000000    -2.744000000    -0.944000000
C    -0.038000000    -1.050000000    -1.188000000
H     0.547000000    -1.459000000    -2.008000000
C     0.331000000     0.233000000    -0.720000000
H     1.046000000     0.829000000    -1.144000000
C    -0.302000000     0.731000000     0.422000000
H    -0.072000000     1.765000000     0.666000000
C    -1.465000000     0.086000000     0.925000000
H    -1.980000000     0.471000000     1.801000000
C    -1.869000000    -1.205000000     0.460000000
C    -3.082000000    -1.860000000     1.078000000
O    -3.630000000    -1.359000000     1.992000000
O    -3.240000000    -3.044000000     0.983000000
O    -2.309000000    -5.034000000     2.401000000
H    -2.776000000    -4.962000000     1.569000000
H    -2.374000000    -4.162000000     2.790000000
O    -6.262000000    -1.210000000     2.908000000
H    -5.384000000    -1.019000000     2.579000000
H    -6.232000000    -0.956000000     3.831000000
O    -7.344000000    -3.848000000    -1.879000000
H    -6.412000000    -3.803000000    -1.665000000
H    -7.673000000    -2.967000000    -1.702000000
O    -5.447000000    -3.795000000     1.796000000
H    -4.589000000    -3.478000000     1.516000000
H    -5.753000000    -3.139000000     2.422000000
O    -8.609000000    -1.329000000    -1.216000000
H    -9.539000000    -1.539000000    -1.129000000
H    -8.561000000    -0.386000000    -1.060000000
O    -9.222000000    -4.095000000     1.588000000
H    -9.017000000    -3.171000000     1.731000000
H    -8.809000000    -4.305000000     0.750000000
O    -5.144000000    -3.689000000     7.230000000
H    -5.070000000    -3.574000000     8.178000000
H    -4.245000000    -3.833000000     6.935000000
O    -5.747000000    -6.123000000     3.733000000
H    -5.611000000    -5.720000000     2.875000000
H    -5.909000000    -5.385000000     4.321000000
O    -4.124000000    -3.926000000    -1.378000000
H    -4.082000000    -3.641000000    -0.465000000
H    -3.237000000    -4.225000000    -1.577000000
O    -6.921000000    -3.987000000     5.103000000
H    -6.460000000    -3.776000000     5.916000000
H    -7.834000000    -3.761000000     5.281000000
O    -6.848000000    -0.892000000     5.628000000
H    -6.575000000    -1.413000000     6.383000000
H    -7.618000000    -1.348000000     5.288000000
O    -3.124000000    -2.784000000     4.342000000
H    -3.437000000    -2.102000000     4.936000000
H    -3.059000000    -2.351000000     3.491000000
O    -0.734000000    -7.700000000    -0.103000000
H    -0.635000000    -7.548000000     0.836000000
H     0.156000000    -7.861000000    -0.416000000
O    -5.495000000    -6.304000000     0.648000000
H    -5.453000000    -5.412000000     0.993000000
H    -6.312000000    -6.329000000     0.150000000
O    -0.372000000    -6.716000000     2.926000000
H    -0.398000000    -6.747000000     3.882000000
H    -0.687000000    -5.839000000     2.707000000
O    -2.822000000    -6.451000000    -1.117000000
H    -2.143000000    -6.903000000    -0.616000000
H    -3.630000000    -6.619000000    -0.632000000
O    -8.590000000    -1.191000000     1.606000000
H    -8.440000000    -1.327000000     0.670000000
H    -7.712000000    -1.165000000     1.987000000
O    -3.477000000    -7.869000000     2.741000000
H    -4.229000000    -7.276000000     2.763000000
H    -2.716000000    -7.289000000     2.701000000
O    -2.486000000    -4.947000000     5.615000000
H    -3.008000000    -4.338000000     5.092000000
H    -1.755000000    -5.186000000     5.045000000
