215
-1462.33887
C    -0.052000000     0.785000000     5.050000000
H    -0.438000000     1.795000000     4.941000000
C     1.038000000     0.260000000     4.350000000
C     1.300000000    -1.111000000     4.425000000
H     2.115000000    -1.564000000     3.865000000
C     1.895000000     1.236000000     3.460000000
O     1.692000000     2.648000000     3.707000000
H     1.546000000     1.046000000     2.434000000
O     3.272000000     0.801000000     3.659000000
C     3.991000000     0.767000000     2.442000000
C     4.210000000    -0.524000000     1.971000000
H     4.018000000    -1.409000000     2.573000000
C     4.794000000    -0.745000000     0.717000000
O     4.738000000    -1.964000000     0.132000000
C     4.935000000     0.389000000    -0.130000000
C     5.341000000     0.163000000    -1.581000000
H     5.904000000     1.033000000    -1.927000000
C     4.142000000    -0.040000000    -2.483000000
C     3.596000000     1.077000000    -3.203000000
H     3.853000000     2.092000000    -2.910000000
H     6.077000000    -0.643000000    -1.566000000
C     4.644000000     1.693000000     0.262000000
H     4.789000000     2.531000000    -0.415000000
C     4.329000000     1.889000000     1.639000000
C     4.077000000     3.316000000     2.102000000
H     4.727000000     3.998000000     1.550000000
H     4.189000000     3.478000000     3.176000000
C     2.665000000     3.804000000     1.818000000
C     2.336000000     4.525000000     0.635000000
H     3.116000000     4.536000000    -0.123000000
C     1.555000000     3.493000000     2.620000000
C     0.292000000     4.120000000     2.433000000
H    -0.549000000     3.965000000     3.103000000
C     0.028000000     4.754000000     1.256000000
O    -1.334000000     4.952000000     1.048000000
C    -2.009000000     4.021000000     0.201000000
C    -3.444000000     3.640000000     0.542000000
C    -4.498000000     3.360000000    -0.426000000
H    -4.328000000     3.593000000    -1.474000000
C    -3.807000000     3.354000000     1.899000000
H    -3.080000000     3.569000000     2.678000000
O    -1.975000000     4.497000000    -1.213000000
H    -1.457000000     3.070000000     0.236000000
C     1.066000000     4.963000000     0.349000000
C     0.800000000     5.541000000    -0.982000000
H     1.757000000     5.971000000    -1.285000000
H     0.019000000     6.299000000    -0.895000000
C     0.342000000     4.463000000    -1.957000000
C     1.292000000     3.791000000    -2.777000000
H     2.313000000     4.156000000    -2.700000000
C    -0.995000000     4.039000000    -2.067000000
C    -1.356000000     3.030000000    -2.993000000
H    -2.384000000     2.677000000    -3.027000000
C    -0.384000000     2.350000000    -3.767000000
O    -0.831000000     1.295000000    -4.555000000
C    -0.488000000    -0.070000000    -4.106000000
C    -1.735000000    -0.970000000    -4.318000000
C    -3.047000000    -0.482000000    -4.176000000
H    -3.184000000     0.571000000    -3.943000000
C    -1.479000000    -2.340000000    -4.476000000
H    -0.440000000    -2.656000000    -4.511000000
O     0.672000000    -0.527000000    -4.751000000
H    -0.383000000    -0.060000000    -3.011000000
C     0.939000000     2.830000000    -3.744000000
C     1.931000000     2.240000000    -4.731000000
H     2.773000000     2.909000000    -4.918000000
H     1.516000000     2.168000000    -5.738000000
C     2.512000000     0.954000000    -4.089000000
C     1.923000000    -0.314000000    -4.227000000
C     2.546000000    -1.406000000    -3.640000000
H     2.114000000    -2.371000000    -3.891000000
C     3.529000000    -1.301000000    -2.693000000
O     3.855000000    -2.422000000    -1.965000000
C     3.522000000    -2.433000000    -0.520000000
H     2.729000000    -1.709000000    -0.283000000
C     3.056000000    -3.806000000    -0.178000000
C     3.420000000    -4.463000000     1.019000000
H     3.922000000    -3.864000000     1.774000000
C     2.273000000    -4.551000000    -1.151000000
H     1.997000000    -4.079000000    -2.091000000
C     1.809000000    -5.837000000    -0.878000000
O     1.003000000    -6.527000000    -1.820000000
C     2.080000000    -6.372000000     0.362000000
H     1.701000000    -7.332000000     0.702000000
C     2.844000000    -5.720000000     1.319000000
O     3.134000000    -6.229000000     2.592000000
C     3.016000000    -5.516000000     3.730000000
C     1.848000000    -4.786000000     3.979000000
H     1.002000000    -4.835000000     3.297000000
C     4.132000000    -5.418000000     4.575000000
H     4.936000000    -6.137000000     4.437000000
C     4.011000000    -4.734000000     5.759000000
H     4.841000000    -4.736000000     6.461000000
C     2.819000000    -4.000000000     6.081000000
H     2.841000000    -3.365000000     6.963000000
C     1.751000000    -4.001000000     5.128000000
O     0.658000000    -3.245000000     5.383000000
C     0.502000000    -1.922000000     5.222000000
C    -0.486000000    -1.334000000     5.900000000
H    -1.075000000    -2.018000000     6.505000000
C    -0.882000000     0.005000000     5.826000000
O    -2.010000000     0.476000000     6.421000000
C    -2.758000000     1.600000000     6.037000000
C    -3.623000000     1.562000000     4.930000000
H    -3.632000000     0.675000000     4.302000000
C    -2.918000000     2.599000000     6.933000000
H    -2.335000000     2.547000000     7.849000000
C    -3.735000000     3.731000000     6.693000000
H    -3.734000000     4.523000000     7.437000000
C    -4.518000000     3.729000000     5.536000000
H    -5.134000000     4.598000000     5.319000000
C    -4.473000000     2.612000000     4.680000000
O    -5.333000000     2.557000000     3.579000000
C    -5.024000000     2.784000000     2.257000000
C    -6.012000000     2.514000000     1.314000000
H    -7.016000000     2.187000000     1.574000000
C    -5.715000000     2.799000000    -0.016000000
O    -6.658000000     2.390000000    -0.901000000
C    -6.479000000     1.993000000    -2.198000000
C    -6.005000000     0.716000000    -2.440000000
H    -5.768000000     0.080000000    -1.590000000
C    -6.827000000     2.828000000    -3.337000000
H    -7.303000000     3.795000000    -3.194000000
C    -6.574000000     2.383000000    -4.644000000
H    -6.893000000     2.970000000    -5.502000000
C    -6.097000000     1.086000000    -4.854000000
H    -5.902000000     0.671000000    -5.840000000
C    -5.790000000     0.266000000    -3.729000000
O    -5.346000000    -1.086000000    -3.806000000
C    -4.065000000    -1.428000000    -4.221000000
C    -3.837000000    -2.788000000    -4.421000000
H    -4.632000000    -3.526000000    -4.481000000
C    -2.542000000    -3.187000000    -4.624000000
O    -2.326000000    -4.593000000    -4.727000000
C    -1.070000000    -5.190000000    -4.501000000
C    -0.108000000    -5.219000000    -5.507000000
H    -0.392000000    -4.878000000    -6.499000000
C     1.161000000    -5.681000000    -5.260000000
H     1.894000000    -5.760000000    -6.059000000
C     1.540000000    -6.114000000    -3.994000000
H     2.546000000    -6.514000000    -3.891000000
C     0.590000000    -6.130000000    -3.005000000
C    -0.698000000    -5.620000000    -3.230000000
H    -1.347000000    -5.541000000    -2.362000000
C    -0.539000000    -1.427000000    -0.344000000
H    -0.456000000    -2.373000000    -0.873000000
C     0.282000000    -0.371000000    -0.692000000
H     1.003000000    -0.514000000    -1.493000000
C     0.240000000     0.834000000     0.022000000
H     0.899000000     1.725000000    -0.276000000
C    -0.611000000     0.910000000     1.147000000
H    -0.685000000     1.854000000     1.680000000
C    -1.367000000    -0.181000000     1.534000000
H    -2.009000000    -0.194000000     2.411000000
C    -1.358000000    -1.356000000     0.791000000
C    -2.390000000    -2.435000000     1.087000000
O    -3.025000000    -2.346000000     2.116000000
O    -2.574000000    -3.422000000     0.377000000
O    -1.033000000    -5.443000000     1.879000000
H    -1.401000000    -4.851000000     1.224000000
H    -1.345000000    -5.099000000     2.716000000
O    -5.538000000    -2.014000000     1.746000000
H    -4.614000000    -2.131000000     1.965000000
H    -5.530000000    -1.596000000     0.885000000
O    -5.381000000    -5.976000000    -3.090000000
H    -5.935000000    -5.307000000    -3.490000000
H    -4.725000000    -6.175000000    -3.758000000
O    -7.348000000    -3.786000000    -0.310000000
H    -6.430000000    -3.582000000    -0.491000000
H    -7.523000000    -3.373000000     0.535000000
O    -4.345000000    -5.522000000     1.901000000
H    -3.920000000    -5.089000000     1.161000000
H    -4.648000000    -4.803000000     2.457000000
O    -8.616000000    -0.740000000    -0.131000000
H    -9.173000000    -1.504000000     0.022000000
H    -8.226000000    -0.896000000    -0.991000000
O    -4.136000000    -4.250000000     6.254000000
H    -3.518000000    -4.099000000     6.970000000
H    -4.892000000    -3.706000000     6.472000000
O    -6.890000000    -7.257000000     1.860000000
H    -6.192000000    -6.606000000     1.794000000
H    -7.632000000    -6.777000000     2.226000000
O    -4.792000000    -2.806000000    -0.937000000
H    -4.509000000    -2.605000000    -1.829000000
H    -3.987000000    -3.045000000    -0.478000000
O    -5.866000000    -1.220000000     5.434000000
H    -5.200000000    -1.089000000     4.759000000
H    -6.655000000    -1.460000000     4.948000000
O    -2.556000000    -4.235000000     3.962000000
H    -3.015000000    -3.963000000     4.756000000
H    -2.729000000    -3.534000000     3.333000000
O    -0.476000000    -8.656000000    -0.763000000
H    -0.694000000    -8.695000000     0.168000000
H    -0.098000000    -7.785000000    -0.884000000
O    -8.219000000    -6.663000000    -0.687000000
H    -7.766000000    -5.832000000    -0.836000000
H    -7.942000000    -6.933000000     0.189000000
O    -3.495000000    -5.992000000    -0.971000000
H    -3.030000000    -5.161000000    -0.879000000
H    -4.180000000    -5.814000000    -1.616000000
O    -0.313000000    -7.956000000     2.118000000
H    -0.802000000    -8.067000000     2.933000000
H    -0.279000000    -7.009000000     1.985000000
O    -2.982000000    -8.466000000    -1.918000000
H    -2.049000000    -8.618000000    -1.765000000
H    -3.204000000    -7.740000000    -1.334000000
O    -7.800000000    -0.752000000     2.653000000
H    -8.107000000    -0.535000000     1.773000000
H    -7.069000000    -1.353000000     2.511000000
O    -3.183000000    -7.992000000     2.122000000
H    -2.270000000    -7.957000000     1.835000000
H    -3.544000000    -7.140000000     1.876000000
O    -0.964000000    -6.836000000     5.231000000
H    -1.258000000    -7.244000000     6.045000000
H    -1.712000000    -6.314000000     4.941000000
