215
-1434.10718
C    -0.621000000     0.140000000     5.326000000
H    -0.958000000     1.160000000     5.154000000
C     0.623000000    -0.290000000     4.819000000
C     0.959000000    -1.612000000     4.924000000
H     1.866000000    -1.989000000     4.458000000
C     1.482000000     0.736000000     3.966000000
O     1.224000000     2.055000000     4.444000000
H     1.105000000     0.744000000     2.932000000
O     2.847000000     0.434000000     4.032000000
C     3.712000000     0.609000000     2.939000000
C     4.119000000    -0.528000000     2.230000000
H     3.902000000    -1.532000000     2.585000000
C     4.539000000    -0.469000000     0.921000000
O     4.700000000    -1.726000000     0.207000000
C     4.815000000     0.809000000     0.346000000
C     5.334000000     0.958000000    -1.052000000
H     5.874000000     1.903000000    -1.134000000
C     4.278000000     0.896000000    -2.113000000
C     3.742000000     2.082000000    -2.644000000
H     4.006000000     2.964000000    -2.066000000
H     6.044000000     0.154000000    -1.259000000
C     4.572000000     1.964000000     1.137000000
H     4.640000000     2.942000000     0.667000000
C     3.929000000     1.901000000     2.372000000
C     3.493000000     3.170000000     3.086000000
H     4.279000000     3.925000000     3.013000000
H     3.573000000     3.011000000     4.163000000
C     2.089000000     3.565000000     2.785000000
C     1.863000000     4.240000000     1.587000000
H     2.711000000     4.625000000     1.028000000
C     1.019000000     3.021000000     3.500000000
C    -0.235000000     3.357000000     3.142000000
H    -1.034000000     2.962000000     3.764000000
C    -0.517000000     4.178000000     2.015000000
O    -1.827000000     4.262000000     1.692000000
C    -2.284000000     3.375000000     0.641000000
C    -3.570000000     2.734000000     0.987000000
C    -4.225000000     1.959000000    -0.024000000
H    -3.817000000     1.896000000    -1.030000000
C    -4.066000000     2.691000000     2.257000000
H    -3.600000000     3.272000000     3.048000000
O    -2.249000000     4.047000000    -0.609000000
H    -1.536000000     2.571000000     0.586000000
C     0.583000000     4.609000000     1.240000000
C     0.340000000     5.434000000    -0.032000000
H     1.227000000     6.033000000    -0.247000000
H    -0.435000000     6.138000000     0.279000000
C     0.064000000     4.470000000    -1.226000000
C     1.130000000     4.255000000    -2.102000000
H     2.107000000     4.662000000    -1.851000000
C    -1.202000000     3.846000000    -1.460000000
C    -1.318000000     3.039000000    -2.617000000
H    -2.225000000     2.457000000    -2.757000000
C    -0.280000000     2.969000000    -3.569000000
O    -0.381000000     2.113000000    -4.646000000
C    -0.004000000     0.772000000    -4.404000000
C    -1.078000000    -0.163000000    -4.922000000
C    -2.408000000     0.148000000    -4.791000000
H    -2.708000000     1.182000000    -4.637000000
C    -0.671000000    -1.495000000    -5.082000000
H     0.358000000    -1.793000000    -4.898000000
O     1.296000000     0.592000000    -4.899000000
H     0.061000000     0.589000000    -3.321000000
C     0.961000000     3.543000000    -3.265000000
C     2.160000000     3.312000000    -4.187000000
H     2.874000000     4.116000000    -3.997000000
H     1.898000000     3.205000000    -5.241000000
C     2.802000000     2.071000000    -3.695000000
C     2.380000000     0.837000000    -4.156000000
C     2.860000000    -0.364000000    -3.599000000
H     2.451000000    -1.334000000    -3.873000000
C     3.851000000    -0.357000000    -2.598000000
O     4.149000000    -1.631000000    -2.105000000
C     3.660000000    -2.035000000    -0.786000000
H     2.757000000    -1.453000000    -0.553000000
C     3.175000000    -3.485000000    -0.813000000
C     2.892000000    -4.172000000     0.397000000
H     3.149000000    -3.747000000     1.364000000
C     2.967000000    -4.202000000    -2.030000000
H     3.129000000    -3.761000000    -3.010000000
C     2.464000000    -5.533000000    -2.087000000
O     2.352000000    -6.139000000    -3.270000000
C     2.112000000    -6.152000000    -0.892000000
H     1.572000000    -7.093000000    -0.966000000
C     2.259000000    -5.450000000     0.322000000
O     1.714000000    -6.017000000     1.460000000
C     2.002000000    -5.567000000     2.809000000
C     0.976000000    -4.968000000     3.556000000
H    -0.030000000    -4.885000000     3.153000000
C     3.265000000    -5.549000000     3.347000000
H     4.111000000    -5.977000000     2.814000000
C     3.513000000    -5.084000000     4.544000000
H     4.478000000    -5.206000000     5.029000000
C     2.543000000    -4.496000000     5.355000000
H     2.790000000    -4.069000000     6.324000000
C     1.284000000    -4.421000000     4.820000000
O     0.389000000    -3.815000000     5.641000000
C     0.105000000    -2.511000000     5.546000000
C    -1.008000000    -1.973000000     6.247000000
H    -1.650000000    -2.531000000     6.925000000
C    -1.443000000    -0.707000000     5.991000000
O    -2.579000000    -0.194000000     6.530000000
C    -3.374000000     0.891000000     6.171000000
C    -4.148000000     0.996000000     5.054000000
H    -4.206000000     0.141000000     4.386000000
C    -3.284000000     1.962000000     7.034000000
H    -2.542000000     1.935000000     7.827000000
C    -4.007000000     3.116000000     6.866000000
H    -3.941000000     3.887000000     7.630000000
C    -4.869000000     3.169000000     5.777000000
H    -5.543000000     4.006000000     5.614000000
C    -4.934000000     2.112000000     4.908000000
O    -5.760000000     2.126000000     3.840000000
C    -5.235000000     2.072000000     2.553000000
C    -5.856000000     1.248000000     1.604000000
H    -6.711000000     0.652000000     1.912000000
C    -5.341000000     1.267000000     0.300000000
O    -6.173000000     0.619000000    -0.602000000
C    -6.087000000     0.903000000    -1.983000000
C    -5.504000000     0.000000000    -2.899000000
H    -5.134000000    -0.999000000    -2.681000000
C    -6.512000000     2.110000000    -2.480000000
H    -6.912000000     2.821000000    -1.763000000
C    -6.283000000     2.425000000    -3.792000000
H    -6.575000000     3.443000000    -4.037000000
C    -5.631000000     1.612000000    -4.772000000
H    -5.529000000     1.941000000    -5.803000000
C    -5.342000000     0.372000000    -4.235000000
O    -4.686000000    -0.540000000    -5.105000000
C    -3.344000000    -0.788000000    -5.196000000
C    -2.941000000    -2.104000000    -5.426000000
H    -3.688000000    -2.869000000    -5.622000000
C    -1.614000000    -2.489000000    -5.413000000
O    -1.251000000    -3.790000000    -5.444000000
C     0.022000000    -4.312000000    -5.561000000
C     0.541000000    -4.650000000    -6.777000000
H    -0.052000000    -4.356000000    -7.639000000
C     1.695000000    -5.433000000    -6.841000000
H     2.076000000    -5.718000000    -7.818000000
C     2.283000000    -5.888000000    -5.617000000
H     3.228000000    -6.420000000    -5.690000000
C     1.758000000    -5.567000000    -4.377000000
C     0.651000000    -4.708000000    -4.347000000
H     0.157000000    -4.361000000    -3.444000000
C    -1.032000000    -3.203000000    -0.384000000
H    -1.106000000    -4.092000000    -1.005000000
C    -0.393000000    -2.071000000    -0.955000000
H     0.008000000    -2.169000000    -1.960000000
C    -0.473000000    -0.894000000    -0.207000000
H    -0.130000000     0.049000000    -0.580000000
C    -0.992000000    -0.888000000     1.040000000
H    -1.255000000     0.015000000     1.586000000
C    -1.421000000    -1.996000000     1.646000000
H    -1.849000000    -2.028000000     2.645000000
C    -1.449000000    -3.153000000     0.899000000
C    -2.200000000    -4.390000000     1.462000000
O    -2.660000000    -4.345000000     2.526000000
O    -2.264000000    -5.402000000     0.808000000
O     1.877000000    -9.059000000     1.793000000
H     2.688000000    -9.252000000     1.324000000
H     1.557000000    -8.249000000     1.395000000
O    -1.064000000    -8.658000000    -1.989000000
H    -0.557000000    -8.765000000    -2.794000000
H    -1.724000000    -8.000000000    -2.206000000
O    -0.629000000    -7.704000000     0.972000000
H    -0.581000000    -8.216000000     0.165000000
H    -1.223000000    -6.983000000     0.763000000
O    -4.303000000    -2.503000000     3.881000000
H    -5.071000000    -2.266000000     3.362000000
H    -3.800000000    -3.086000000     3.313000000
O    -6.508000000    -1.927000000     2.443000000
H    -6.709000000    -2.771000000     2.040000000
H    -7.361000000    -1.509000000     2.561000000
O    -3.316000000    -8.986000000     0.604000000
H    -2.571000000    -8.761000000     1.162000000
H    -3.994000000    -8.355000000     0.845000000
O    -6.703000000    -4.439000000     1.680000000
H    -5.751000000    -4.506000000     1.756000000
H    -7.034000000    -5.214000000     2.135000000
O    -2.651000000    -4.716000000     5.016000000
H    -2.726000000    -4.594000000     4.070000000
H    -2.147000000    -3.959000000     5.316000000
O    -2.460000000    -6.353000000    -3.011000000
H    -1.753000000    -5.709000000    -3.039000000
H    -3.008000000    -6.074000000    -2.277000000
O    -5.142000000    -5.389000000     5.457000000
H    -5.190000000    -5.868000000     6.284000000
H    -4.236000000    -5.084000000     5.409000000
O    -6.861000000    -6.690000000     3.621000000
H    -6.519000000    -6.105000000     4.297000000
H    -6.693000000    -7.570000000     3.959000000
O    -4.305000000    -6.505000000     1.878000000
H    -3.456000000    -6.076000000     1.771000000
H    -4.695000000    -6.078000000     2.640000000
O    -4.230000000    -5.040000000    -1.037000000
H    -3.869000000    -5.476000000    -0.265000000
H    -4.323000000    -4.125000000    -0.775000000
O    -1.021000000    -9.122000000     3.357000000
H    -0.355000000    -9.798000000     3.228000000
H    -0.823000000    -8.462000000     2.693000000
O    -2.310000000    -8.056000000     5.419000000
H    -1.753000000    -8.430000000     4.736000000
H    -2.486000000    -7.163000000     5.122000000
O    -7.182000000    -5.404000000    -1.094000000
H    -7.058000000    -5.007000000    -1.956000000
H    -6.300000000    -5.460000000    -0.727000000
O    -4.468000000    -2.516000000     0.275000000
H    -5.170000000    -2.056000000     0.735000000
H    -3.673000000    -2.041000000     0.515000000
O    -5.772000000    -2.159000000     6.535000000
H    -5.038000000    -2.169000000     5.920000000
H    -6.521000000    -1.881000000     6.009000000
O    -3.908000000    -9.891000000    -1.845000000
H    -3.468000000    -9.510000000    -1.085000000
H    -3.733000000   -10.830000000    -1.777000000
