215
-1468.56089
C    -0.433000000     0.299000000     5.498000000
H    -0.620000000     1.343000000     5.737000000
C     0.774000000    -0.064000000     4.868000000
C     1.102000000    -1.417000000     4.830000000
H     2.001000000    -1.761000000     4.325000000
C     1.612000000     0.961000000     4.082000000
O     1.419000000     2.311000000     4.492000000
H     1.204000000     0.788000000     3.076000000
O     3.042000000     0.731000000     4.080000000
C     3.706000000     0.903000000     2.875000000
C     4.031000000    -0.288000000     2.145000000
H     4.017000000    -1.265000000     2.621000000
C     4.508000000    -0.257000000     0.870000000
O     4.741000000    -1.455000000     0.154000000
C     4.770000000     0.940000000     0.273000000
C     5.351000000     1.035000000    -1.179000000
H     5.882000000     1.984000000    -1.281000000
C     4.346000000     0.941000000    -2.320000000
C     3.714000000     2.058000000    -2.873000000
H     4.025000000     3.036000000    -2.514000000
H     6.117000000     0.258000000    -1.204000000
C     4.515000000     2.153000000     0.948000000
H     4.764000000     3.097000000     0.472000000
C     3.978000000     2.125000000     2.245000000
C     3.646000000     3.424000000     2.911000000
H     4.202000000     4.291000000     2.547000000
H     3.912000000     3.431000000     3.970000000
C     2.135000000     3.634000000     2.713000000
C     1.725000000     4.424000000     1.619000000
H     2.488000000     4.671000000     0.885000000
C     1.140000000     3.088000000     3.471000000
C    -0.223000000     3.301000000     3.151000000
H    -1.037000000     2.895000000     3.746000000
C    -0.587000000     4.057000000     2.037000000
O    -1.967000000     4.043000000     1.694000000
C    -2.431000000     3.342000000     0.535000000
C    -3.747000000     2.652000000     0.845000000
C    -4.587000000     2.261000000    -0.199000000
H    -4.310000000     2.353000000    -1.246000000
C    -4.150000000     2.248000000     2.154000000
H    -3.501000000     2.385000000     3.015000000
O    -2.441000000     4.150000000    -0.653000000
H    -1.776000000     2.475000000     0.362000000
C     0.382000000     4.629000000     1.240000000
C    -0.020000000     5.410000000     0.003000000
H     0.712000000     6.173000000    -0.269000000
H    -0.954000000     5.931000000     0.224000000
C    -0.192000000     4.443000000    -1.249000000
C     0.873000000     4.266000000    -2.115000000
H     1.871000000     4.440000000    -1.720000000
C    -1.479000000     3.963000000    -1.605000000
C    -1.629000000     3.222000000    -2.787000000
H    -2.570000000     2.693000000    -2.923000000
C    -0.554000000     2.989000000    -3.699000000
O    -0.740000000     2.049000000    -4.675000000
C    -0.176000000     0.766000000    -4.460000000
C    -1.101000000    -0.294000000    -4.945000000
C    -2.498000000    -0.238000000    -4.689000000
H    -2.836000000     0.645000000    -4.151000000
C    -0.729000000    -1.508000000    -5.632000000
H     0.337000000    -1.625000000    -5.808000000
O     1.146000000     0.607000000    -5.028000000
H    -0.058000000     0.646000000    -3.373000000
C     0.653000000     3.566000000    -3.325000000
C     1.904000000     3.230000000    -4.169000000
H     2.558000000     4.090000000    -4.018000000
H     1.696000000     3.079000000    -5.231000000
C     2.610000000     1.998000000    -3.741000000
C     2.235000000     0.780000000    -4.272000000
C     2.922000000    -0.369000000    -3.853000000
H     2.584000000    -1.317000000    -4.265000000
C     3.891000000    -0.266000000    -2.840000000
O     4.366000000    -1.439000000    -2.227000000
C     3.784000000    -1.759000000    -0.895000000
H     2.860000000    -1.181000000    -0.751000000
C     3.310000000    -3.220000000    -0.742000000
C     3.555000000    -3.787000000     0.530000000
H     4.044000000    -3.268000000     1.350000000
C     2.677000000    -3.937000000    -1.818000000
H     2.468000000    -3.396000000    -2.738000000
C     2.251000000    -5.190000000    -1.571000000
O     1.570000000    -5.868000000    -2.641000000
C     2.477000000    -5.826000000    -0.365000000
H     2.097000000    -6.817000000    -0.131000000
C     3.094000000    -5.129000000     0.699000000
O     3.334000000    -5.794000000     1.878000000
C     3.042000000    -5.368000000     3.157000000
C     1.915000000    -4.691000000     3.532000000
H     1.190000000    -4.384000000     2.783000000
C     4.170000000    -5.419000000     4.016000000
H     5.156000000    -5.706000000     3.658000000
C     3.979000000    -4.993000000     5.328000000
H     4.743000000    -5.196000000     6.074000000
C     2.748000000    -4.529000000     5.797000000
H     2.546000000    -4.412000000     6.859000000
C     1.697000000    -4.298000000     4.867000000
O     0.490000000    -3.755000000     5.263000000
C     0.238000000    -2.396000000     5.428000000
C    -0.928000000    -1.990000000     6.037000000
H    -1.486000000    -2.765000000     6.556000000
C    -1.258000000    -0.626000000     6.111000000
O    -2.322000000    -0.124000000     6.874000000
C    -3.282000000     0.764000000     6.451000000
C    -3.928000000     0.652000000     5.231000000
H    -3.686000000    -0.158000000     4.548000000
C    -3.689000000     1.707000000     7.327000000
H    -3.238000000     1.671000000     8.315000000
C    -4.703000000     2.528000000     7.023000000
H    -5.049000000     3.168000000     7.831000000
C    -5.482000000     2.372000000     5.871000000
H    -6.405000000     2.888000000     5.619000000
C    -4.994000000     1.448000000     4.935000000
O    -5.756000000     1.392000000     3.746000000
C    -5.364000000     1.647000000     2.443000000
C    -6.168000000     1.290000000     1.316000000
H    -7.089000000     0.729000000     1.450000000
C    -5.747000000     1.543000000     0.015000000
O    -6.447000000     0.950000000    -0.980000000
C    -6.179000000     0.993000000    -2.318000000
C    -5.616000000    -0.122000000    -2.913000000
H    -5.384000000    -0.906000000    -2.198000000
C    -6.578000000     2.089000000    -3.114000000
H    -7.060000000     2.945000000    -2.649000000
C    -6.414000000     2.054000000    -4.550000000
H    -6.748000000     2.808000000    -5.258000000
C    -5.779000000     0.989000000    -5.104000000
H    -5.803000000     0.852000000    -6.182000000
C    -5.341000000    -0.068000000    -4.298000000
O    -4.750000000    -1.146000000    -4.763000000
C    -3.457000000    -1.216000000    -5.102000000
C    -2.961000000    -2.422000000    -5.645000000
H    -3.530000000    -3.339000000    -5.776000000
C    -1.649000000    -2.549000000    -5.881000000
O    -1.164000000    -3.826000000    -6.125000000
C     0.040000000    -4.303000000    -5.627000000
C     1.033000000    -4.485000000    -6.616000000
H     0.964000000    -4.093000000    -7.628000000
C     2.158000000    -5.217000000    -6.281000000
H     2.954000000    -5.231000000    -7.021000000
C     2.383000000    -5.643000000    -4.957000000
H     3.301000000    -6.143000000    -4.661000000
C     1.355000000    -5.398000000    -3.976000000
C     0.152000000    -4.804000000    -4.314000000
H    -0.639000000    -4.736000000    -3.571000000
C    -0.972000000    -1.434000000    -0.540000000
H    -1.478000000    -2.311000000    -0.937000000
C    -0.040000000    -0.757000000    -1.357000000
H     0.433000000    -1.073000000    -2.284000000
C     0.501000000     0.419000000    -0.901000000
H     1.187000000     1.004000000    -1.491000000
C     0.156000000     0.914000000     0.378000000
H     0.551000000     1.848000000     0.768000000
C    -0.802000000     0.211000000     1.114000000
H    -1.175000000     0.719000000     2.000000000
C    -1.428000000    -0.954000000     0.644000000
C    -2.310000000    -1.782000000     1.532000000
O    -2.544000000    -1.441000000     2.694000000
O    -2.819000000    -2.827000000     1.122000000
O    -1.435000000    -4.761000000     3.032000000
H    -1.523000000    -4.194000000     2.266000000
H    -0.786000000    -4.321000000     3.581000000
O    -5.307000000    -1.537000000     2.168000000
H    -4.477000000    -2.001000000     2.284000000
H    -5.057000000    -0.617000000     2.084000000
O    -5.270000000    -4.143000000    -3.382000000
H    -4.733000000    -3.786000000    -2.674000000
H    -4.727000000    -4.827000000    -3.773000000
O    -4.346000000    -4.867000000     1.831000000
H    -3.660000000    -4.214000000     1.688000000
H    -5.161000000    -4.405000000     1.633000000
O    -9.294000000    -2.074000000     3.115000000
H    -8.409000000    -2.193000000     3.458000000
H    -9.357000000    -1.136000000     2.934000000
O    -7.516000000    -3.491000000    -1.969000000
H    -6.811000000    -3.433000000    -2.614000000
H    -8.014000000    -2.682000000    -2.085000000
O    -8.562000000    -4.692000000     2.106000000
H    -7.688000000    -4.337000000     1.941000000
H    -9.140000000    -3.931000000     2.074000000
O    -5.028000000    -2.220000000     6.660000000
H    -4.339000000    -2.422000000     6.027000000
H    -4.624000000    -2.378000000     7.513000000
O    -4.732000000    -7.021000000     3.831000000
H    -4.327000000    -6.368000000     3.260000000
H    -4.821000000    -6.579000000     4.675000000
O    -3.703000000    -3.605000000    -1.351000000
H    -3.571000000    -3.147000000    -0.521000000
H    -3.580000000    -4.530000000    -1.136000000
O    -5.008000000    -5.797000000     6.143000000
H    -4.530000000    -5.754000000     6.972000000
H    -5.744000000    -5.196000000     6.260000000
O    -6.764000000    -2.299000000     4.400000000
H    -6.315000000    -1.877000000     3.667000000
H    -6.174000000    -2.178000000     5.144000000
O    -3.300000000    -3.117000000     4.546000000
H    -3.405000000    -3.835000000     3.922000000
H    -2.825000000    -2.443000000     4.059000000
O    -0.979000000    -7.291000000    -1.203000000
H    -0.947000000    -7.206000000    -0.250000000
H    -0.246000000    -6.760000000    -1.515000000
O    -5.252000000    -7.122000000     0.638000000
H    -4.909000000    -6.376000000     1.130000000
H    -5.669000000    -7.674000000     1.299000000
O    -1.080000000    -6.943000000     1.535000000
H    -0.642000000    -7.614000000     2.060000000
H    -1.193000000    -6.206000000     2.135000000
O    -3.454000000    -6.226000000    -1.355000000
H    -2.635000000    -6.706000000    -1.232000000
H    -4.024000000    -6.542000000    -0.653000000
O    -6.576000000    -3.633000000     0.671000000
H    -6.809000000    -3.676000000    -0.257000000
H    -6.330000000    -2.719000000     0.814000000
O    -1.570000000    -5.493000000     6.411000000
H    -1.947000000    -4.781000000     5.894000000
H    -1.026000000    -5.978000000     5.791000000
