215
-1465.79768
C    -0.971000000     1.153000000     5.293000000
H    -1.264000000     2.170000000     5.045000000
C     0.285000000     0.772000000     4.796000000
C     0.599000000    -0.595000000     4.986000000
H     1.485000000    -1.022000000     4.525000000
C     1.064000000     1.562000000     3.773000000
O     0.743000000     2.966000000     3.933000000
H     0.781000000     1.274000000     2.750000000
O     2.495000000     1.350000000     3.913000000
C     3.263000000     1.205000000     2.756000000
C     3.676000000    -0.033000000     2.327000000
H     3.537000000    -0.898000000     2.970000000
C     4.362000000    -0.128000000     1.140000000
O     4.641000000    -1.338000000     0.596000000
C     4.707000000     0.974000000     0.350000000
C     5.487000000     0.807000000    -0.943000000
H     6.067000000     1.693000000    -1.209000000
C     4.537000000     0.493000000    -2.098000000
C     3.897000000     1.583000000    -2.694000000
H     4.017000000     2.621000000    -2.397000000
H     6.245000000     0.028000000    -0.829000000
C     4.331000000     2.256000000     0.876000000
H     4.532000000     3.120000000     0.248000000
C     3.683000000     2.386000000     2.119000000
C     3.177000000     3.728000000     2.559000000
H     3.896000000     4.488000000     2.246000000
H     3.074000000     3.882000000     3.636000000
C     1.824000000     4.088000000     1.990000000
C     1.600000000     4.666000000     0.773000000
H     2.409000000     5.099000000     0.190000000
C     0.675000000     3.685000000     2.734000000
C    -0.624000000     3.887000000     2.321000000
H    -1.490000000     3.704000000     2.953000000
C    -0.832000000     4.513000000     1.153000000
O    -2.097000000     4.638000000     0.682000000
C    -2.500000000     3.577000000    -0.245000000
C    -3.843000000     2.928000000     0.155000000
C    -4.460000000     1.929000000    -0.734000000
H    -3.909000000     1.702000000    -1.643000000
C    -4.343000000     2.972000000     1.507000000
H    -3.969000000     3.704000000     2.218000000
O    -2.354000000     4.040000000    -1.552000000
H    -1.845000000     2.708000000    -0.087000000
C     0.255000000     4.804000000     0.357000000
C     0.073000000     5.468000000    -1.028000000
H     0.914000000     6.099000000    -1.322000000
H    -0.815000000     6.099000000    -0.952000000
C    -0.094000000     4.455000000    -2.109000000
C     1.084000000     4.024000000    -2.804000000
H     1.982000000     4.637000000    -2.795000000
C    -1.247000000     3.706000000    -2.313000000
C    -1.331000000     2.579000000    -3.086000000
H    -2.290000000     2.105000000    -3.277000000
C    -0.184000000     2.103000000    -3.735000000
O    -0.417000000     1.009000000    -4.577000000
C     0.227000000    -0.193000000    -4.216000000
C    -0.712000000    -1.292000000    -4.707000000
C    -2.110000000    -1.023000000    -4.884000000
H    -2.546000000    -0.073000000    -4.584000000
C    -0.230000000    -2.606000000    -4.841000000
H     0.760000000    -2.898000000    -4.502000000
O     1.560000000    -0.179000000    -4.854000000
H     0.334000000    -0.200000000    -3.121000000
C     1.021000000     2.881000000    -3.646000000
C     2.282000000     2.495000000    -4.403000000
H     2.926000000     3.376000000    -4.417000000
H     2.081000000     2.050000000    -5.379000000
C     2.956000000     1.374000000    -3.675000000
C     2.621000000     0.073000000    -3.997000000
C     3.212000000    -1.006000000    -3.432000000
H     2.733000000    -1.966000000    -3.609000000
C     4.144000000    -0.841000000    -2.397000000
O     4.475000000    -1.862000000    -1.567000000
C     3.745000000    -1.853000000    -0.365000000
H     2.944000000    -1.113000000    -0.507000000
C     3.221000000    -3.226000000    -0.014000000
C     3.147000000    -3.657000000     1.265000000
H     3.595000000    -3.187000000     2.136000000
C     2.669000000    -4.055000000    -1.035000000
H     2.747000000    -3.740000000    -2.073000000
C     2.197000000    -5.292000000    -0.710000000
O     2.102000000    -6.309000000    -1.594000000
C     2.191000000    -5.761000000     0.577000000
H     1.870000000    -6.783000000     0.764000000
C     2.655000000    -4.933000000     1.577000000
O     2.722000000    -5.343000000     2.878000000
C     2.750000000    -4.601000000     4.060000000
C     1.545000000    -3.967000000     4.456000000
H     0.709000000    -3.935000000     3.763000000
C     3.886000000    -4.432000000     4.841000000
H     4.863000000    -4.731000000     4.472000000
C     3.752000000    -3.706000000     6.007000000
H     4.637000000    -3.508000000     6.605000000
C     2.544000000    -3.226000000     6.502000000
H     2.531000000    -2.670000000     7.437000000
C     1.429000000    -3.319000000     5.660000000
O     0.225000000    -2.759000000     6.001000000
C    -0.133000000    -1.430000000     5.764000000
C    -1.322000000    -1.031000000     6.310000000
H    -1.901000000    -1.766000000     6.863000000
C    -1.743000000     0.310000000     6.139000000
O    -2.990000000     0.701000000     6.576000000
C    -3.756000000     1.683000000     5.969000000
C    -4.445000000     1.397000000     4.752000000
H    -4.551000000     0.404000000     4.322000000
C    -3.686000000     3.005000000     6.447000000
H    -3.141000000     3.288000000     7.344000000
C    -4.454000000     4.042000000     5.893000000
H    -4.603000000     4.955000000     6.463000000
C    -5.245000000     3.682000000     4.835000000
H    -5.912000000     4.425000000     4.405000000
C    -5.164000000     2.443000000     4.255000000
O    -5.957000000     2.309000000     3.134000000
C    -5.420000000     2.155000000     1.846000000
C    -6.076000000     1.399000000     0.892000000
H    -6.941000000     0.818000000     1.201000000
C    -5.660000000     1.294000000    -0.397000000
O    -6.190000000     0.323000000    -1.258000000
C    -5.944000000     0.322000000    -2.645000000
C    -5.298000000    -0.784000000    -3.212000000
H    -5.027000000    -1.648000000    -2.610000000
C    -6.217000000     1.392000000    -3.412000000
H    -6.655000000     2.272000000    -2.947000000
C    -5.948000000     1.356000000    -4.801000000
H    -6.279000000     2.204000000    -5.396000000
C    -5.324000000     0.248000000    -5.391000000
H    -5.200000000     0.299000000    -6.470000000
C    -4.967000000    -0.818000000    -4.559000000
O    -4.373000000    -1.924000000    -5.061000000
C    -2.991000000    -2.080000000    -5.064000000
C    -2.470000000    -3.349000000    -5.312000000
H    -3.215000000    -4.125000000    -5.466000000
C    -1.116000000    -3.640000000    -5.262000000
O    -0.857000000    -5.013000000    -5.082000000
C     0.379000000    -5.453000000    -4.744000000
C     1.154000000    -6.164000000    -5.690000000
H     0.786000000    -6.195000000    -6.712000000
C     2.307000000    -6.804000000    -5.281000000
H     2.956000000    -7.280000000    -6.012000000
C     2.641000000    -6.773000000    -3.933000000
H     3.584000000    -7.265000000    -3.708000000
C     1.780000000    -6.206000000    -2.954000000
C     0.668000000    -5.471000000    -3.354000000
H     0.059000000    -4.997000000    -2.588000000
C    -0.513000000    -2.700000000     0.012000000
H    -0.553000000    -3.679000000    -0.459000000
C     0.306000000    -1.687000000    -0.402000000
H     1.073000000    -1.871000000    -1.149000000
C     0.211000000    -0.368000000     0.134000000
H     0.929000000     0.417000000    -0.180000000
C    -0.703000000    -0.070000000     1.073000000
H    -0.844000000     0.962000000     1.382000000
C    -1.626000000    -1.100000000     1.420000000
H    -2.298000000    -0.796000000     2.219000000
C    -1.505000000    -2.420000000     0.959000000
C    -2.573000000    -3.412000000     1.257000000
O    -3.083000000    -3.499000000     2.341000000
O    -2.882000000    -4.336000000     0.512000000
O    -2.481000000    -7.922000000    -3.350000000
H    -2.540000000    -6.994000000    -3.122000000
H    -2.753000000    -7.960000000    -4.267000000
O    -1.577000000    -6.899000000     0.088000000
H    -1.698000000    -6.664000000    -0.832000000
H    -1.899000000    -6.140000000     0.574000000
O    -5.407000000    -1.995000000     3.176000000
H    -5.782000000    -1.655000000     2.363000000
H    -4.687000000    -2.557000000     2.891000000
O    -5.808000000    -6.933000000    -1.846000000
H    -5.208000000    -6.469000000    -2.429000000
H    -6.667000000    -6.830000000    -2.255000000
O    -6.341000000    -1.898000000     0.699000000
H    -7.044000000    -1.648000000     0.100000000
H    -5.935000000    -2.661000000     0.287000000
O    -4.360000000    -6.160000000     1.841000000
H    -3.837000000    -5.458000000     1.454000000
H    -4.248000000    -6.050000000     2.786000000
O    -5.555000000    -4.172000000    -0.534000000
H    -4.636000000    -4.161000000    -0.269000000
H    -5.978000000    -4.763000000     0.089000000
O    -7.460000000    -6.105000000     3.967000000
H    -6.570000000    -5.828000000     3.746000000
H    -7.390000000    -7.051000000     4.100000000
O    -4.539000000    -3.376000000     6.023000000
H    -5.265000000    -2.818000000     6.302000000
H    -4.602000000    -3.391000000     5.068000000
O    -6.606000000    -0.823000000     5.400000000
H    -7.419000000    -1.245000000     5.123000000
H    -5.983000000    -1.023000000     4.702000000
O    -4.361000000    -6.870000000     4.478000000
H    -3.597000000    -6.983000000     5.044000000
H    -4.783000000    -7.729000000     4.471000000
O    -1.992000000    -5.107000000     4.318000000
H    -2.036000000    -4.525000000     5.076000000
H    -2.493000000    -4.655000000     3.639000000
O    -2.340000000    -5.254000000    -2.009000000
H    -2.506000000    -4.657000000    -1.279000000
H    -3.068000000    -5.105000000    -2.612000000
O    -0.137000000    -8.882000000     1.618000000
H    -0.116000000    -8.781000000     2.570000000
H    -0.584000000    -8.096000000     1.304000000
O    -4.617000000    -4.475000000    -3.237000000
H    -5.321000000    -4.258000000    -2.625000000
H    -4.607000000    -3.748000000    -3.859000000
O    -8.495000000    -1.836000000     3.744000000
H    -7.799000000    -2.236000000     3.223000000
H    -9.217000000    -1.715000000     3.126000000
O    -4.015000000    -8.834000000     2.198000000
H    -4.179000000    -7.966000000     1.829000000
H    -3.142000000    -8.768000000     2.586000000
O    -0.501000000    -7.225000000     3.847000000
H    -0.964000000    -6.388000000     3.843000000
H     0.285000000    -7.062000000     4.369000000
O    -6.770000000    -6.416000000     0.543000000
H    -6.389000000    -6.707000000    -0.286000000
H    -6.034000000    -6.412000000     1.156000000
