215
-1485.80975
C     4.343000000     0.546000000    -3.273000000
H     4.175000000    -0.282000000    -3.957000000
C     4.377000000     0.325000000    -1.914000000
C     4.654000000     1.464000000    -1.090000000
H     4.906000000     1.371000000    -0.037000000
C     4.008000000    -1.002000000    -1.289000000
O     4.107000000    -2.103000000    -2.230000000
H     2.982000000    -0.971000000    -0.892000000
O     4.873000000    -1.311000000    -0.134000000
C     4.201000000    -1.819000000     0.958000000
C     3.969000000    -0.983000000     2.085000000
H     4.446000000    -0.007000000     2.102000000
C     3.204000000    -1.282000000     3.175000000
O     2.928000000    -0.338000000     4.112000000
C     2.666000000    -2.580000000     3.256000000
C     1.748000000    -3.131000000     4.314000000
H     1.868000000    -4.207000000     4.452000000
C     0.345000000    -2.732000000     4.014000000
C    -0.594000000    -3.670000000     3.468000000
H    -0.272000000    -4.652000000     3.130000000
H     2.061000000    -2.801000000     5.306000000
C     2.894000000    -3.534000000     2.201000000
H     2.377000000    -4.489000000     2.171000000
C     3.619000000    -3.089000000     1.060000000
C     3.708000000    -4.027000000    -0.145000000
H     3.481000000    -5.044000000     0.182000000
H     4.674000000    -3.996000000    -0.652000000
C     2.694000000    -3.798000000    -1.205000000
C     1.483000000    -4.531000000    -1.239000000
H     1.340000000    -5.263000000    -0.448000000
C     2.979000000    -2.877000000    -2.274000000
C     2.063000000    -2.574000000    -3.248000000
H     2.257000000    -1.790000000    -3.976000000
C     0.881000000    -3.348000000    -3.315000000
O    -0.037000000    -2.937000000    -4.254000000
C    -0.984000000    -2.050000000    -3.614000000
C    -1.404000000    -0.885000000    -4.499000000
C    -2.646000000    -0.262000000    -4.359000000
H    -3.380000000    -0.623000000    -3.642000000
C    -0.418000000    -0.282000000    -5.310000000
H     0.569000000    -0.721000000    -5.435000000
O    -2.175000000    -2.834000000    -3.195000000
H    -0.640000000    -1.512000000    -2.718000000
C     0.600000000    -4.304000000    -2.317000000
C    -0.706000000    -5.126000000    -2.304000000
H    -0.453000000    -6.098000000    -1.874000000
H    -1.156000000    -5.314000000    -3.281000000
C    -1.651000000    -4.347000000    -1.385000000
C    -1.788000000    -4.576000000     0.006000000
H    -1.124000000    -5.336000000     0.409000000
C    -2.323000000    -3.190000000    -1.889000000
C    -3.179000000    -2.434000000    -1.079000000
H    -3.688000000    -1.559000000    -1.475000000
C    -3.286000000    -2.732000000     0.263000000
O    -4.088000000    -1.934000000     0.897000000
C    -3.428000000    -0.905000000     1.659000000
C    -4.160000000     0.351000000     1.488000000
C    -4.932000000     0.636000000     0.349000000
H    -5.115000000    -0.069000000    -0.458000000
C    -4.077000000     1.370000000     2.471000000
H    -3.454000000     1.215000000     3.348000000
O    -3.404000000    -1.264000000     3.050000000
H    -2.403000000    -0.793000000     1.276000000
C    -2.638000000    -3.794000000     0.799000000
C    -2.796000000    -4.055000000     2.279000000
H    -2.624000000    -5.106000000     2.520000000
H    -3.814000000    -3.826000000     2.603000000
C    -1.851000000    -3.196000000     3.090000000
C    -2.210000000    -1.911000000     3.468000000
C    -1.313000000    -1.071000000     4.098000000
H    -1.700000000    -0.114000000     4.440000000
C    -0.030000000    -1.461000000     4.403000000
O     0.788000000    -0.614000000     5.088000000
C     1.544000000     0.159000000     4.157000000
H     1.140000000     0.030000000     3.142000000
C     1.547000000     1.587000000     4.559000000
C     2.176000000     2.486000000     3.793000000
H     2.897000000     2.152000000     3.050000000
C     0.519000000     2.044000000     5.420000000
H    -0.156000000     1.373000000     5.946000000
C     0.355000000     3.397000000     5.563000000
O    -0.706000000     3.892000000     6.354000000
C     1.207000000     4.330000000     4.903000000
H     0.989000000     5.381000000     5.074000000
C     2.093000000     3.861000000     3.950000000
O     2.817000000     4.737000000     3.132000000
C     4.052000000     4.446000000     2.556000000
C     4.049000000     4.301000000     1.180000000
H     3.279000000     4.676000000     0.510000000
C     5.172000000     4.137000000     3.336000000
H     5.266000000     4.211000000     4.417000000
C     6.268000000     3.604000000     2.724000000
H     7.126000000     3.386000000     3.354000000
C     6.321000000     3.468000000     1.332000000
H     7.220000000     3.201000000     0.782000000
C     5.247000000     3.800000000     0.559000000
O     5.250000000     3.763000000    -0.804000000
C     4.905000000     2.752000000    -1.629000000
C     4.768000000     2.963000000    -3.003000000
H     4.841000000     3.949000000    -3.455000000
C     4.491000000     1.834000000    -3.774000000
O     4.455000000     2.098000000    -5.127000000
C     3.673000000     1.395000000    -5.993000000
C     2.355000000     1.839000000    -6.093000000
H     1.998000000     2.670000000    -5.491000000
C     4.192000000     0.318000000    -6.639000000
H     5.248000000     0.061000000    -6.637000000
C     3.361000000    -0.350000000    -7.549000000
H     3.743000000    -1.139000000    -8.193000000
C     2.015000000     0.051000000    -7.705000000
H     1.266000000    -0.376000000    -8.367000000
C     1.501000000     1.108000000    -6.924000000
O     0.173000000     1.432000000    -6.935000000
C    -0.791000000     0.796000000    -6.172000000
C    -2.080000000     1.325000000    -6.073000000
H    -2.282000000     2.173000000    -6.723000000
C    -3.005000000     0.834000000    -5.149000000
O    -4.230000000     1.426000000    -5.052000000
C    -5.312000000     1.069000000    -4.208000000
C    -5.373000000     1.803000000    -2.982000000
H    -4.621000000     2.555000000    -2.760000000
C    -6.274000000     0.096000000    -4.449000000
H    -6.383000000    -0.412000000    -5.404000000
C    -7.243000000    -0.114000000    -3.543000000
H    -7.938000000    -0.943000000    -3.653000000
C    -7.303000000     0.581000000    -2.353000000
H    -8.059000000     0.375000000    -1.600000000
C    -6.329000000     1.578000000    -2.034000000
O    -6.266000000     2.238000000    -0.836000000
C    -5.588000000     1.866000000     0.308000000
C    -5.488000000     2.854000000     1.264000000
H    -5.999000000     3.807000000     1.157000000
C    -4.689000000     2.613000000     2.354000000
O    -4.452000000     3.632000000     3.209000000
C    -3.860000000     3.473000000     4.449000000
C    -4.728000000     3.132000000     5.499000000
H    -5.739000000     2.765000000     5.344000000
C    -4.305000000     3.116000000     6.823000000
H    -4.909000000     2.795000000     7.667000000
C    -2.936000000     3.409000000     7.082000000
H    -2.620000000     3.455000000     8.122000000
C    -2.030000000     3.560000000     6.035000000
C    -2.473000000     3.612000000     4.720000000
H    -1.750000000     3.688000000     3.911000000
C    -1.352000000     1.159000000    -0.800000000
H    -2.306000000     1.187000000    -1.319000000
C    -0.733000000    -0.091000000    -0.469000000
H    -1.292000000    -0.948000000    -0.835000000
C     0.476000000    -0.266000000     0.179000000
H     0.906000000    -1.195000000     0.411000000
C     1.132000000     0.949000000     0.566000000
H     2.120000000     0.906000000     1.016000000
C     0.419000000     2.236000000     0.466000000
H     0.867000000     3.148000000     0.853000000
C    -0.839000000     2.304000000    -0.174000000
C    -1.737000000     3.538000000    -0.286000000
O    -1.431000000     4.579000000     0.333000000
O    -2.745000000     3.647000000    -0.914000000
O    -2.230000000     4.753000000    -5.911000000
H    -1.622000000     4.556000000    -6.623000000
H    -1.896000000     4.254000000    -5.165000000
O    -3.489000000     8.535000000     0.102000000
H    -3.689000000     7.672000000     0.464000000
H    -3.875000000     9.151000000     0.725000000
O    -4.175000000     6.525000000    -4.890000000
H    -3.919000000     6.619000000    -3.973000000
H    -3.495000000     5.971000000    -5.273000000
O    -7.399000000     5.557000000    -2.464000000
H    -6.553000000     5.120000000    -2.371000000
H    -7.728000000     5.637000000    -1.569000000
O    -3.790000000     6.492000000     3.835000000
H    -4.308000000     5.992000000     4.466000000
H    -4.080000000     6.172000000     2.981000000
O     0.887000000     5.483000000    -6.430000000
H     1.718000000     5.942000000    -6.554000000
H     0.478000000     5.926000000    -5.686000000
O    -2.887000000     7.085000000    -2.211000000
H    -2.318000000     6.422000000    -1.819000000
H    -2.651000000     7.897000000    -1.764000000
O    -1.330000000     3.731000000    -3.736000000
H    -0.633000000     3.160000000    -3.412000000
H    -1.738000000     4.083000000    -2.945000000
O    -0.404000000     6.168000000    -1.377000000
H    -0.659000000     5.622000000    -0.633000000
H     0.358000000     5.724000000    -1.749000000
O    -0.811000000     7.487000000     4.110000000
H    -0.547000000     7.088000000     3.282000000
H    -1.496000000     6.911000000     4.447000000
O     0.005000000     6.187000000     1.805000000
H     0.627000000     6.556000000     1.178000000
H    -0.530000000     5.586000000     1.287000000
O    -0.402000000     7.182000000    -4.371000000
H    -1.125000000     7.162000000    -3.743000000
H     0.302000000     7.639000000    -3.911000000
O     2.030000000     7.169000000    -0.003000000
H     1.847000000     6.635000000    -0.776000000
H     2.930000000     7.469000000    -0.126000000
O    -4.805000000     5.303000000    -1.721000000
H    -4.142000000     4.744000000    -1.317000000
H    -4.340000000     6.113000000    -1.931000000
O     1.782000000     4.853000000    -2.157000000
H     2.198000000     5.228000000    -2.934000000
H     1.585000000     3.949000000    -2.404000000
O    -3.762000000     5.917000000     1.049000000
H    -4.536000000     5.437000000     0.753000000
H    -3.032000000     5.321000000     0.880000000
O     1.145000000     9.208000000     1.743000000
H     1.406000000     8.316000000     1.514000000
H     0.470000000     9.432000000     1.101000000
O    -0.851000000     8.773000000    -0.319000000
H    -0.592000000     7.920000000    -0.668000000
H    -1.746000000     8.642000000    -0.005000000
O     1.274000000     2.265000000    -2.628000000
H     1.817000000     1.601000000    -3.053000000
H     0.879000000     1.811000000    -1.883000000
