215
-1454.55585
C    -1.656000000     2.504000000     4.938000000
H    -1.472000000     3.526000000     4.619000000
C    -0.712000000     1.523000000     4.752000000
C    -1.042000000     0.200000000     4.972000000
H    -0.402000000    -0.600000000     4.608000000
C     0.625000000     1.733000000     4.088000000
O     0.854000000     3.184000000     4.082000000
H     0.412000000     1.451000000     3.047000000
O     1.690000000     0.904000000     4.648000000
C     2.648000000     0.399000000     3.824000000
C     2.677000000    -1.001000000     3.647000000
H     1.940000000    -1.663000000     4.093000000
C     3.610000000    -1.554000000     2.684000000
O     3.479000000    -2.842000000     2.369000000
C     4.470000000    -0.675000000     1.972000000
C     5.376000000    -1.205000000     0.847000000
H     6.341000000    -0.707000000     0.731000000
C     4.711000000    -1.316000000    -0.473000000
C     4.704000000    -0.202000000    -1.265000000
H     5.377000000     0.626000000    -1.055000000
H     5.684000000    -2.219000000     1.111000000
C     4.389000000     0.692000000     2.147000000
H     5.051000000     1.345000000     1.584000000
C     3.566000000     1.191000000     3.102000000
C     3.606000000     2.699000000     3.354000000
H     4.604000000     3.069000000     3.107000000
H     3.604000000     2.917000000     4.424000000
C     2.603000000     3.440000000     2.485000000
C     2.930000000     3.878000000     1.162000000
H     3.943000000     3.731000000     0.796000000
C     1.328000000     3.687000000     2.955000000
C     0.347000000     4.226000000     2.115000000
H    -0.708000000     4.228000000     2.375000000
C     0.635000000     4.601000000     0.821000000
O    -0.401000000     4.912000000    -0.009000000
C    -0.823000000     3.999000000    -1.101000000
C    -2.245000000     3.590000000    -1.140000000
C    -2.815000000     3.038000000    -2.307000000
H    -2.269000000     3.203000000    -3.232000000
C    -3.074000000     3.695000000     0.027000000
H    -2.707000000     4.054000000     0.984000000
O    -0.207000000     4.216000000    -2.355000000
H    -0.455000000     3.015000000    -0.774000000
C     1.980000000     4.524000000     0.338000000
C     2.331000000     4.940000000    -1.066000000
H     3.336000000     5.366000000    -1.064000000
H     1.727000000     5.824000000    -1.284000000
C     2.168000000     3.858000000    -2.114000000
C     3.229000000     2.968000000    -2.430000000
H     4.250000000     3.195000000    -2.135000000
C     0.947000000     3.526000000    -2.650000000
C     0.730000000     2.433000000    -3.437000000
H    -0.256000000     2.262000000    -3.861000000
C     1.805000000     1.636000000    -3.832000000
O     1.471000000     0.537000000    -4.559000000
C     1.188000000    -0.687000000    -3.853000000
C     0.050000000    -1.511000000    -4.519000000
C    -0.917000000    -0.848000000    -5.259000000
H    -0.941000000     0.224000000    -5.441000000
C    -0.043000000    -2.855000000    -4.233000000
H     0.621000000    -3.396000000    -3.565000000
O     2.348000000    -1.519000000    -3.855000000
H     0.911000000    -0.485000000    -2.808000000
C     3.034000000     1.800000000    -3.188000000
C     4.169000000     0.810000000    -3.404000000
H     5.149000000     1.259000000    -3.228000000
H     4.122000000     0.603000000    -4.475000000
C     3.984000000    -0.300000000    -2.482000000
C     3.204000000    -1.468000000    -2.808000000
C     3.216000000    -2.551000000    -1.897000000
H     2.613000000    -3.410000000    -2.180000000
C     3.994000000    -2.448000000    -0.779000000
O     3.739000000    -3.447000000     0.146000000
C     2.796000000    -3.111000000     1.103000000
H     2.195000000    -2.224000000     0.851000000
C     1.796000000    -4.227000000     1.246000000
C     0.985000000    -4.253000000     2.374000000
H     1.270000000    -3.656000000     3.236000000
C     1.539000000    -5.092000000     0.144000000
H     2.147000000    -5.073000000    -0.757000000
C     0.509000000    -6.035000000     0.200000000
O     0.296000000    -6.973000000    -0.720000000
C    -0.243000000    -6.028000000     1.388000000
H    -1.060000000    -6.744000000     1.437000000
C    -0.123000000    -5.080000000     2.422000000
O    -0.842000000    -5.207000000     3.622000000
C    -0.776000000    -4.290000000     4.630000000
C    -1.736000000    -3.314000000     4.599000000
H    -2.353000000    -3.165000000     3.716000000
C     0.081000000    -4.500000000     5.675000000
H     0.722000000    -5.375000000     5.609000000
C     0.035000000    -3.709000000     6.807000000
H     0.784000000    -3.920000000     7.566000000
C    -0.880000000    -2.627000000     6.747000000
H    -0.936000000    -1.985000000     7.622000000
C    -1.729000000    -2.467000000     5.696000000
O    -2.622000000    -1.419000000     5.793000000
C    -2.202000000    -0.111000000     5.649000000
C    -3.127000000     0.873000000     6.002000000
H    -4.114000000     0.641000000     6.396000000
C    -2.906000000     2.157000000     5.471000000
O    -3.898000000     3.060000000     5.655000000
C    -4.265000000     3.802000000     4.554000000
C    -4.442000000     3.314000000     3.252000000
H    -4.241000000     2.268000000     3.036000000
C    -4.641000000     5.154000000     4.871000000
H    -4.609000000     5.562000000     5.878000000
C    -5.078000000     5.892000000     3.788000000
H    -5.312000000     6.952000000     3.849000000
C    -5.432000000     5.343000000     2.540000000
H    -5.917000000     5.964000000     1.791000000
C    -4.983000000     4.072000000     2.201000000
O    -5.277000000     3.460000000     1.011000000
C    -4.465000000     3.416000000    -0.068000000
C    -5.037000000     2.940000000    -1.274000000
H    -6.107000000     2.824000000    -1.425000000
C    -4.202000000     2.700000000    -2.348000000
O    -4.784000000     2.179000000    -3.503000000
C    -4.069000000     1.961000000    -4.711000000
C    -3.941000000     0.639000000    -5.070000000
H    -4.119000000    -0.163000000    -4.357000000
C    -3.864000000     3.040000000    -5.649000000
H    -3.969000000     4.073000000    -5.328000000
C    -3.453000000     2.636000000    -6.956000000
H    -3.314000000     3.393000000    -7.723000000
C    -3.201000000     1.327000000    -7.278000000
H    -2.842000000     1.006000000    -8.253000000
C    -3.416000000     0.337000000    -6.306000000
O    -2.967000000    -0.952000000    -6.586000000
C    -1.914000000    -1.588000000    -5.891000000
C    -1.973000000    -2.982000000    -5.674000000
H    -2.781000000    -3.600000000    -6.056000000
C    -1.054000000    -3.632000000    -4.829000000
O    -1.124000000    -5.015000000    -4.806000000
C    -0.295000000    -5.866000000    -4.136000000
C     0.588000000    -6.675000000    -4.908000000
H     0.639000000    -6.687000000    -5.993000000
C     1.440000000    -7.522000000    -4.111000000
H     2.113000000    -8.173000000    -4.663000000
C     1.414000000    -7.539000000    -2.712000000
H     2.046000000    -8.256000000    -2.194000000
C     0.455000000    -6.787000000    -2.084000000
C    -0.425000000    -5.926000000    -2.730000000
H    -1.153000000    -5.394000000    -2.122000000
C    -1.396000000    -1.877000000     0.425000000
H    -1.476000000    -2.897000000     0.059000000
C    -0.242000000    -1.158000000     0.280000000
H     0.695000000    -1.539000000    -0.117000000
C    -0.103000000     0.183000000     0.644000000
H     0.738000000     0.788000000     0.439000000
C    -1.252000000     0.821000000     1.096000000
H    -1.168000000     1.892000000     1.261000000
C    -2.432000000     0.101000000     1.317000000
H    -3.230000000     0.579000000     1.881000000
C    -2.534000000    -1.272000000     0.970000000
C    -3.832000000    -2.011000000     1.225000000
O    -4.802000000    -1.388000000     1.701000000
O    -3.789000000    -3.201000000     1.161000000
O    -5.160000000    -3.455000000    -4.371000000
H    -5.885000000    -3.552000000    -3.753000000
H    -4.521000000    -2.915000000    -3.906000000
O    -3.747000000    -5.852000000     1.515000000
H    -3.846000000    -4.902000000     1.576000000
H    -2.982000000    -6.049000000     2.055000000
O    -2.266000000    -0.152000000    -1.869000000
H    -1.577000000     0.215000000    -2.423000000
H    -2.009000000     0.085000000    -0.978000000
O    -6.600000000    -0.444000000     0.089000000
H    -7.431000000    -0.783000000     0.422000000
H    -5.938000000    -0.819000000     0.670000000
O    -8.605000000    -1.791000000     1.336000000
H    -8.146000000    -2.587000000     1.068000000
H    -9.510000000    -1.931000000     1.057000000
O    -8.051000000    -1.594000000     3.988000000
H    -7.301000000    -2.187000000     4.018000000
H    -8.373000000    -1.660000000     3.089000000
O    -4.321000000    -4.209000000    -1.194000000
H    -3.978000000    -3.957000000    -0.337000000
H    -4.621000000    -3.388000000    -1.583000000
O    -8.498000000     1.630000000    -1.040000000
H    -7.658000000     1.264000000    -0.764000000
H    -8.771000000     1.077000000    -1.772000000
O    -6.869000000    -3.639000000     0.672000000
H    -5.973000000    -3.336000000     0.816000000
H    -6.828000000    -4.586000000     0.809000000
O    -6.643000000     1.413000000     5.520000000
H    -7.400000000     0.859000000     5.712000000
H    -6.084000000     0.871000000     4.963000000
O    -7.702000000    -6.052000000     2.630000000
H    -8.546000000    -5.694000000     2.905000000
H    -7.461000000    -6.661000000     3.329000000
O    -5.796000000    -3.317000000     3.618000000
H    -5.298000000    -2.960000000     2.883000000
H    -6.060000000    -4.190000000     3.328000000
O    -4.992000000    -3.632000000     7.505000000
H    -5.649000000    -4.248000000     7.830000000
H    -5.000000000    -3.751000000     6.556000000
O    -8.238000000     1.393000000     2.408000000
H    -8.372000000     1.495000000     3.351000000
H    -7.289000000     1.317000000     2.308000000
O    -4.756000000    -1.456000000    -2.111000000
H    -3.946000000    -0.949000000    -2.049000000
H    -5.426000000    -0.883000000    -1.738000000
O    -5.328000000    -8.191000000     1.574000000
H    -4.810000000    -7.414000000     1.786000000
H    -5.464000000    -8.625000000     2.417000000
O    -5.169000000    -0.502000000     4.092000000
H    -4.811000000    -1.229000000     4.603000000
H    -5.010000000    -0.750000000     3.181000000
O    -6.761000000    -5.025000000    -2.142000000
H    -5.981000000    -4.704000000    -1.690000000
H    -7.120000000    -5.692000000    -1.557000000
O    -3.957000000    -7.240000000    -0.969000000
H    -3.988000000    -6.938000000    -0.062000000
H    -3.889000000    -6.437000000    -1.487000000
