215
-1452.37103
C    -1.354000000     1.356000000     4.736000000
H    -1.291000000     2.320000000     4.236000000
C    -0.163000000     0.639000000     4.697000000
C    -0.090000000    -0.672000000     5.234000000
H     0.780000000    -1.267000000     4.967000000
C     1.087000000     1.134000000     3.958000000
O     1.133000000     2.595000000     4.109000000
H     0.839000000     0.800000000     2.940000000
O     2.325000000     0.449000000     4.355000000
C     3.275000000     0.138000000     3.433000000
C     3.419000000    -1.167000000     3.092000000
H     2.972000000    -2.006000000     3.619000000
C     4.008000000    -1.441000000     1.906000000
O     4.010000000    -2.736000000     1.386000000
C     4.553000000    -0.444000000     1.098000000
C     5.380000000    -0.747000000    -0.164000000
H     6.091000000     0.059000000    -0.360000000
C     4.517000000    -0.809000000    -1.381000000
C     4.369000000     0.335000000    -2.197000000
H     4.922000000     1.226000000    -1.911000000
H     6.024000000    -1.625000000    -0.072000000
C     4.410000000     0.882000000     1.455000000
H     4.982000000     1.671000000     0.974000000
C     3.776000000     1.189000000     2.631000000
C     3.835000000     2.665000000     3.095000000
H     4.714000000     3.123000000     2.635000000
H     3.760000000     2.698000000     4.184000000
C     2.632000000     3.410000000     2.394000000
C     2.740000000     3.900000000     1.077000000
H     3.682000000     3.684000000     0.580000000
C     1.383000000     3.325000000     2.989000000
C     0.249000000     3.827000000     2.334000000
H    -0.706000000     3.900000000     2.848000000
C     0.335000000     4.269000000     1.054000000
O    -0.812000000     4.811000000     0.580000000
C    -1.420000000     4.032000000    -0.488000000
C    -2.945000000     3.974000000    -0.374000000
C    -3.710000000     3.484000000    -1.466000000
H    -3.201000000     3.192000000    -2.381000000
C    -3.598000000     4.164000000     0.807000000
H    -3.002000000     4.490000000     1.656000000
O    -0.987000000     4.470000000    -1.802000000
H    -1.105000000     2.978000000    -0.477000000
C     1.604000000     4.367000000     0.402000000
C     1.707000000     5.097000000    -0.949000000
H     2.705000000     5.517000000    -1.091000000
H     1.003000000     5.926000000    -1.050000000
C     1.378000000     4.022000000    -1.948000000
C     2.408000000     3.362000000    -2.609000000
H     3.425000000     3.601000000    -2.308000000
C     0.050000000     3.716000000    -2.299000000
C    -0.180000000     2.723000000    -3.305000000
H    -1.232000000     2.531000000    -3.499000000
C     0.867000000     2.014000000    -3.834000000
O     0.643000000     0.984000000    -4.753000000
C     0.630000000    -0.365000000    -4.292000000
C    -0.548000000    -1.119000000    -4.735000000
C    -1.762000000    -0.502000000    -4.814000000
H    -1.792000000     0.574000000    -4.663000000
C    -0.443000000    -2.499000000    -5.050000000
H     0.544000000    -2.924000000    -4.882000000
O     1.938000000    -0.911000000    -4.612000000
H     0.567000000    -0.335000000    -3.194000000
C     2.183000000     2.355000000    -3.509000000
C     3.328000000     1.518000000    -4.020000000
H     4.262000000     2.061000000    -4.175000000
H     3.099000000     1.160000000    -5.026000000
C     3.501000000     0.267000000    -3.253000000
C     2.831000000    -0.931000000    -3.595000000
C     3.057000000    -2.076000000    -2.886000000
H     2.487000000    -2.973000000    -3.114000000
C     3.907000000    -2.027000000    -1.791000000
O     3.853000000    -3.192000000    -1.040000000
C     3.146000000    -3.018000000     0.176000000
H     2.562000000    -2.088000000     0.112000000
C     2.235000000    -4.195000000     0.435000000
C     1.681000000    -4.401000000     1.713000000
H     2.179000000    -3.869000000     2.519000000
C     1.705000000    -4.923000000    -0.609000000
H     2.041000000    -4.760000000    -1.630000000
C     0.790000000    -5.949000000    -0.379000000
O     0.255000000    -6.682000000    -1.443000000
C     0.317000000    -6.228000000     0.942000000
H    -0.538000000    -6.875000000     1.124000000
C     0.795000000    -5.431000000     1.973000000
O     0.389000000    -5.697000000     3.291000000
C     0.702000000    -4.938000000     4.385000000
C    -0.292000000    -4.061000000     4.800000000
H    -1.072000000    -3.773000000     4.100000000
C     1.780000000    -5.323000000     5.255000000
H     2.370000000    -6.188000000     4.960000000
C     1.942000000    -4.676000000     6.487000000
H     2.888000000    -4.854000000     6.993000000
C     1.037000000    -3.708000000     6.933000000
H     1.259000000    -3.141000000     7.834000000
C    -0.081000000    -3.446000000     6.092000000
O    -1.033000000    -2.507000000     6.460000000
C    -1.138000000    -1.234000000     5.911000000
C    -2.359000000    -0.480000000     6.003000000
H    -3.195000000    -0.874000000     6.576000000
C    -2.469000000     0.783000000     5.363000000
O    -3.731000000     1.419000000     5.546000000
C    -3.937000000     2.647000000     5.023000000
C    -4.545000000     2.777000000     3.784000000
H    -4.788000000     1.928000000     3.150000000
C    -3.605000000     3.883000000     5.688000000
H    -3.090000000     3.913000000     6.645000000
C    -3.885000000     5.137000000     5.152000000
H    -3.677000000     6.005000000     5.773000000
C    -4.622000000     5.192000000     4.026000000
H    -4.943000000     6.121000000     3.561000000
C    -4.906000000     4.050000000     3.333000000
O    -5.530000000     4.222000000     2.109000000
C    -4.925000000     4.006000000     0.896000000
C    -5.700000000     3.544000000    -0.096000000
H    -6.783000000     3.454000000    -0.074000000
C    -5.104000000     3.254000000    -1.283000000
O    -5.851000000     2.887000000    -2.344000000
C    -5.401000000     2.403000000    -3.569000000
C    -5.100000000     1.040000000    -3.668000000
H    -5.301000000     0.364000000    -2.841000000
C    -5.187000000     3.259000000    -4.609000000
H    -5.534000000     4.288000000    -4.557000000
C    -4.555000000     2.800000000    -5.766000000
H    -4.449000000     3.457000000    -6.626000000
C    -4.178000000     1.444000000    -5.874000000
H    -3.647000000     1.196000000    -6.790000000
C    -4.445000000     0.524000000    -4.784000000
O    -4.149000000    -0.830000000    -4.894000000
C    -2.902000000    -1.265000000    -5.126000000
C    -2.733000000    -2.647000000    -5.456000000
H    -3.677000000    -3.155000000    -5.639000000
C    -1.532000000    -3.310000000    -5.412000000
O    -1.402000000    -4.696000000    -5.455000000
C    -0.389000000    -5.333000000    -4.809000000
C     0.781000000    -5.674000000    -5.432000000
H     0.930000000    -5.408000000    -6.476000000
C     1.750000000    -6.434000000    -4.827000000
H     2.685000000    -6.669000000    -5.331000000
C     1.615000000    -6.703000000    -3.463000000
H     2.306000000    -7.357000000    -2.936000000
C     0.444000000    -6.388000000    -2.781000000
C    -0.549000000    -5.674000000    -3.422000000
H    -1.442000000    -5.414000000    -2.860000000
C    -0.937000000    -2.744000000     0.039000000
H    -1.048000000    -3.770000000    -0.301000000
C     0.004000000    -1.847000000    -0.541000000
H     0.712000000    -2.224000000    -1.275000000
C    -0.055000000    -0.504000000    -0.224000000
H     0.529000000     0.241000000    -0.772000000
C    -0.768000000    -0.135000000     0.932000000
H    -0.629000000     0.869000000     1.323000000
C    -1.492000000    -1.061000000     1.701000000
H    -2.056000000    -0.767000000     2.582000000
C    -1.686000000    -2.318000000     1.135000000
C    -2.640000000    -3.317000000     1.814000000
O    -3.282000000    -3.131000000     2.835000000
O    -2.773000000    -4.408000000     1.290000000
O    -5.061000000    -5.399000000    -2.806000000
H    -4.328000000    -5.675000000    -2.256000000
H    -5.418000000    -4.630000000    -2.362000000
O    -2.323000000    -6.130000000     3.235000000
H    -2.654000000    -5.481000000     2.615000000
H    -1.371000000    -6.086000000     3.143000000
O    -2.466000000     0.326000000    -1.537000000
H    -1.745000000    -0.139000000    -1.112000000
H    -3.071000000     0.533000000    -0.825000000
O    -5.693000000    -4.379000000     1.725000000
H    -4.740000000    -4.441000000     1.782000000
H    -5.958000000    -5.172000000     1.260000000
O    -8.224000000    -2.701000000    -2.074000000
H    -7.377000000    -2.584000000    -1.643000000
H    -8.844000000    -2.236000000    -1.513000000
O    -7.065000000     0.325000000     2.170000000
H    -6.672000000    -0.548000000     2.168000000
H    -6.917000000     0.653000000     3.057000000
O    -3.972000000    -8.473000000     2.945000000
H    -4.095000000    -8.957000000     3.761000000
H    -3.117000000    -8.053000000     3.042000000
O    -3.226000000    -6.265000000    -0.939000000
H    -3.396000000    -5.649000000    -0.227000000
H    -2.278000000    -6.400000000    -0.919000000
O    -5.692000000    -3.315000000    -0.864000000
H    -5.495000000    -3.396000000     0.069000000
H    -4.998000000    -2.754000000    -1.209000000
O    -4.553000000    -8.714000000    -0.958000000
H    -4.088000000    -7.891000000    -0.807000000
H    -4.669000000    -9.088000000    -0.084000000
O    -4.720000000    -3.601000000     7.231000000
H    -5.671000000    -3.658000000     7.136000000
H    -4.387000000    -3.632000000     6.334000000
O    -6.532000000    -3.853000000     4.205000000
H    -6.549000000    -2.959000000     3.864000000
H    -5.890000000    -4.306000000     3.659000000
O    -3.769000000    -4.784000000     4.983000000
H    -3.635000000    -3.967000000     4.501000000
H    -3.244000000    -5.430000000     4.509000000
O    -3.602000000    -6.956000000     6.735000000
H    -3.842000000    -6.340000000     6.042000000
H    -4.429000000    -7.158000000     7.171000000
O    -0.751000000    -8.788000000     3.033000000
H    -0.666000000    -8.983000000     3.966000000
H     0.144000000    -8.836000000     2.696000000
O    -8.584000000    -5.282000000     3.029000000
H    -8.260000000    -6.157000000     3.241000000
H    -7.881000000    -4.693000000     3.303000000
O    -3.706000000    -2.014000000    -2.207000000
H    -3.295000000    -1.174000000    -2.004000000
H    -4.116000000    -1.880000000    -3.061000000
O    -5.968000000    -7.249000000     1.245000000
H    -5.117000000    -7.680000000     1.323000000
H    -6.561000000    -7.798000000     1.758000000
O    -5.374000000    -1.467000000     3.146000000
H    -5.323000000    -1.096000000     4.027000000
H    -4.581000000    -1.996000000     3.063000000
