215
-1460.18085
C    -1.569000000     1.919000000     4.511000000
H    -1.601000000     2.818000000     3.900000000
C    -0.408000000     1.154000000     4.638000000
C    -0.440000000     0.049000000     5.496000000
H     0.502000000    -0.489000000     5.435000000
C     0.866000000     1.488000000     3.884000000
O     1.132000000     2.890000000     3.740000000
H     0.722000000     1.017000000     2.901000000
O     2.008000000     0.952000000     4.518000000
C     2.945000000     0.383000000     3.678000000
C     2.802000000    -1.042000000     3.454000000
H     2.080000000    -1.584000000     4.059000000
C     3.509000000    -1.628000000     2.464000000
O     3.338000000    -2.972000000     2.205000000
C     4.504000000    -0.940000000     1.732000000
C     5.338000000    -1.602000000     0.648000000
H     6.366000000    -1.238000000     0.588000000
C     4.487000000    -1.628000000    -0.597000000
C     4.564000000    -0.586000000    -1.577000000
H     5.237000000     0.214000000    -1.279000000
H     5.448000000    -2.630000000     1.000000000
C     4.573000000     0.467000000     1.898000000
H     5.314000000     1.000000000     1.308000000
C     3.801000000     1.109000000     2.898000000
C     3.921000000     2.633000000     2.907000000
H     4.938000000     2.882000000     2.596000000
H     3.901000000     3.069000000     3.908000000
C     2.837000000     3.310000000     2.081000000
C     3.134000000     3.848000000     0.830000000
H     4.188000000     3.824000000     0.563000000
C     1.517000000     3.372000000     2.534000000
C     0.552000000     3.922000000     1.760000000
H    -0.485000000     3.974000000     2.083000000
C     0.846000000     4.421000000     0.478000000
O    -0.291000000     4.867000000    -0.272000000
C    -0.693000000     4.101000000    -1.398000000
C    -2.228000000     4.090000000    -1.435000000
C    -2.859000000     3.960000000    -2.640000000
H    -2.197000000     4.179000000    -3.474000000
C    -3.035000000     3.945000000    -0.274000000
H    -2.543000000     3.866000000     0.692000000
O     0.019000000     4.536000000    -2.565000000
H    -0.382000000     3.074000000    -1.157000000
C     2.153000000     4.334000000    -0.049000000
C     2.587000000     4.900000000    -1.424000000
H     3.669000000     5.050000000    -1.401000000
H     2.118000000     5.857000000    -1.660000000
C     2.234000000     3.807000000    -2.441000000
C     3.204000000     2.869000000    -2.697000000
H     4.180000000     3.090000000    -2.272000000
C     0.951000000     3.721000000    -3.053000000
C     0.657000000     2.631000000    -3.865000000
H    -0.372000000     2.522000000    -4.197000000
C     1.578000000     1.594000000    -4.005000000
O     1.250000000     0.441000000    -4.769000000
C     0.955000000    -0.688000000    -3.921000000
C    -0.349000000    -1.328000000    -4.339000000
C    -1.350000000    -0.548000000    -4.981000000
H    -1.129000000     0.475000000    -5.276000000
C    -0.623000000    -2.637000000    -3.892000000
H     0.132000000    -3.164000000    -3.314000000
O     2.081000000    -1.541000000    -4.044000000
H     0.774000000    -0.475000000    -2.857000000
C     2.902000000     1.741000000    -3.447000000
C     3.948000000     0.693000000    -3.629000000
H     4.957000000     0.996000000    -3.342000000
H     3.989000000     0.371000000    -4.671000000
C     3.736000000    -0.529000000    -2.641000000
C     2.857000000    -1.570000000    -2.917000000
C     2.785000000    -2.697000000    -2.057000000
H     2.159000000    -3.544000000    -2.326000000
C     3.575000000    -2.654000000    -0.923000000
O     3.332000000    -3.654000000    -0.071000000
C     2.490000000    -3.348000000     1.036000000
H     1.936000000    -2.409000000     0.888000000
C     1.576000000    -4.439000000     1.400000000
C     1.000000000    -4.435000000     2.657000000
H     1.332000000    -3.647000000     3.328000000
C     1.224000000    -5.385000000     0.470000000
H     1.778000000    -5.415000000    -0.464000000
C     0.249000000    -6.393000000     0.754000000
O    -0.272000000    -7.208000000    -0.215000000
C    -0.394000000    -6.300000000     1.969000000
H    -1.277000000    -6.907000000     2.152000000
C     0.025000000    -5.384000000     2.920000000
O    -0.773000000    -5.332000000     4.016000000
C    -0.559000000    -4.566000000     5.200000000
C    -1.384000000    -3.471000000     5.532000000
H    -2.295000000    -3.185000000     5.014000000
C     0.570000000    -4.867000000     5.963000000
H     1.171000000    -5.710000000     5.631000000
C     1.010000000    -4.037000000     6.923000000
H     1.989000000    -4.250000000     7.344000000
C     0.318000000    -2.844000000     7.138000000
H     0.744000000    -2.095000000     7.801000000
C    -0.926000000    -2.618000000     6.548000000
O    -1.691000000    -1.491000000     6.845000000
C    -1.624000000    -0.352000000     6.108000000
C    -2.789000000     0.402000000     5.941000000
H    -3.670000000     0.128000000     6.515000000
C    -2.737000000     1.565000000     5.205000000
O    -3.874000000     2.411000000     5.202000000
C    -4.123000000     3.345000000     4.258000000
C    -4.475000000     3.084000000     2.924000000
H    -4.588000000     2.048000000     2.615000000
C    -4.159000000     4.650000000     4.724000000
H    -4.073000000     4.813000000     5.795000000
C    -4.503000000     5.724000000     3.870000000
H    -4.639000000     6.751000000     4.200000000
C    -4.756000000     5.429000000     2.536000000
H    -5.020000000     6.268000000     1.898000000
C    -4.798000000     4.100000000     2.047000000
O    -5.251000000     3.755000000     0.783000000
C    -4.407000000     3.791000000    -0.377000000
C    -4.978000000     3.580000000    -1.618000000
H    -6.003000000     3.219000000    -1.618000000
C    -4.195000000     3.643000000    -2.767000000
O    -4.765000000     3.416000000    -3.974000000
C    -4.059000000     2.809000000    -4.951000000
C    -4.160000000     1.377000000    -5.078000000
H    -4.646000000     0.797000000    -4.298000000
C    -3.520000000     3.553000000    -6.015000000
H    -3.422000000     4.630000000    -5.901000000
C    -3.184000000     2.887000000    -7.233000000
H    -2.769000000     3.465000000    -8.055000000
C    -3.237000000     1.501000000    -7.290000000
H    -2.897000000     0.981000000    -8.181000000
C    -3.689000000     0.726000000    -6.216000000
O    -3.502000000    -0.637000000    -6.169000000
C    -2.557000000    -1.207000000    -5.345000000
C    -2.763000000    -2.544000000    -4.975000000
H    -3.687000000    -3.053000000    -5.236000000
C    -1.799000000    -3.273000000    -4.223000000
O    -2.125000000    -4.418000000    -3.611000000
C    -1.251000000    -5.408000000    -3.266000000
C    -0.404000000    -5.946000000    -4.177000000
H    -0.506000000    -5.575000000    -5.194000000
C     0.515000000    -6.962000000    -3.825000000
H     1.171000000    -7.377000000    -4.586000000
C     0.551000000    -7.405000000    -2.524000000
H     1.385000000    -8.052000000    -2.264000000
C    -0.323000000    -6.806000000    -1.530000000
C    -1.249000000    -5.871000000    -1.939000000
H    -1.857000000    -5.331000000    -1.218000000
C    -1.436000000    -1.793000000     0.746000000
H    -1.420000000    -2.866000000     0.579000000
C    -0.543000000    -0.926000000     0.090000000
H     0.201000000    -1.292000000    -0.613000000
C    -0.498000000     0.403000000     0.417000000
H     0.345000000     1.057000000    -0.059000000
C    -1.402000000     0.939000000     1.391000000
H    -1.248000000     2.009000000     1.510000000
C    -2.331000000     0.153000000     2.028000000
H    -3.064000000     0.529000000     2.738000000
C    -2.340000000    -1.209000000     1.679000000
C    -3.316000000    -2.048000000     2.414000000
O    -4.336000000    -1.545000000     2.867000000
O    -3.051000000    -3.229000000     2.478000000
O    -4.840000000    -5.542000000    -2.134000000
H    -5.268000000    -6.087000000    -1.475000000
H    -4.438000000    -4.832000000    -1.634000000
O    -3.158000000    -5.955000000     6.285000000
H    -2.535000000    -5.233000000     6.357000000
H    -2.779000000    -6.653000000     6.820000000
O    -3.638000000    -5.597000000     3.342000000
H    -3.337000000    -4.710000000     3.144000000
H    -3.109000000    -5.867000000     4.092000000
O    -3.284000000    -0.253000000    -1.544000000
H    -3.040000000    -0.587000000    -0.681000000
H    -2.450000000    -0.033000000    -1.960000000
O    -6.663000000    -0.441000000     1.524000000
H    -6.294000000    -0.353000000     0.645000000
H    -5.943000000    -0.786000000     2.052000000
O    -6.667000000    -3.932000000    -0.334000000
H    -6.853000000    -4.354000000     0.505000000
H    -7.444000000    -4.105000000    -0.866000000
O    -8.150000000    -3.160000000     5.023000000
H    -7.279000000    -3.556000000     5.009000000
H    -8.712000000    -3.802000000     4.589000000
O    -4.006000000    -4.285000000     0.174000000
H    -3.578000000    -4.207000000     1.027000000
H    -4.798000000    -3.754000000     0.255000000
O    -6.589000000    -7.154000000     3.680000000
H    -6.702000000    -6.358000000     3.160000000
H    -6.188000000    -6.852000000     4.495000000
O    -8.662000000     0.243000000     4.422000000
H    -9.371000000    -0.267000000     4.815000000
H    -8.367000000     0.824000000     5.123000000
O    -5.707000000    -3.976000000     4.319000000
H    -5.392000000    -3.131000000     3.996000000
H    -5.020000000    -4.596000000     4.075000000
O    -8.311000000    -5.611000000     1.631000000
H    -8.844000000    -5.156000000     2.282000000
H    -8.711000000    -5.385000000     0.792000000
O    -5.816000000    -2.059000000     7.592000000
H    -5.830000000    -3.016000000     7.568000000
H    -5.967000000    -1.794000000     6.685000000
O    -0.952000000    -7.989000000     4.955000000
H    -0.045000000    -8.294000000     4.927000000
H    -0.887000000    -7.038000000     4.867000000
O    -8.933000000     1.531000000     2.007000000
H    -8.829000000     1.039000000     2.822000000
H    -8.369000000     1.079000000     1.380000000
O    -5.512000000    -2.088000000    -2.356000000
H    -4.659000000    -1.976000000    -1.936000000
H    -6.087000000    -2.389000000    -1.652000000
O    -5.899000000    -1.213000000     4.895000000
H    -6.770000000    -1.440000000     4.569000000
H    -5.336000000    -1.252000000     4.122000000
O    -4.501000000    -7.642000000     1.548000000
H    -4.728000000    -8.215000000     2.281000000
H    -4.216000000    -6.827000000     1.962000000
O    -6.520000000     1.678000000     6.423000000
H    -5.909000000     1.345000000     5.766000000
H    -6.134000000     1.421000000     7.260000000
