215
-1466.56473
C    -1.401000000     0.693000000     5.114000000
H    -1.663000000     1.703000000     4.810000000
C    -0.152000000     0.191000000     4.823000000
C     0.073000000    -1.116000000     5.320000000
H     1.062000000    -1.560000000     5.242000000
C     0.899000000     0.980000000     3.983000000
O     0.828000000     2.352000000     4.298000000
H     0.865000000     0.898000000     2.887000000
O     2.261000000     0.469000000     4.325000000
C     3.042000000     0.187000000     3.242000000
C     2.997000000    -1.090000000     2.616000000
H     2.368000000    -1.901000000     2.974000000
C     3.759000000    -1.347000000     1.504000000
O     3.657000000    -2.647000000     1.048000000
C     4.537000000    -0.304000000     0.934000000
C     5.467000000    -0.516000000    -0.237000000
H     6.315000000     0.168000000    -0.312000000
C     4.813000000    -0.458000000    -1.560000000
C     4.644000000     0.715000000    -2.281000000
H     5.180000000     1.554000000    -1.844000000
H     5.910000000    -1.508000000    -0.127000000
C     4.585000000     0.928000000     1.585000000
H     5.229000000     1.703000000     1.176000000
C     3.732000000     1.242000000     2.581000000
C     3.721000000     2.644000000     3.071000000
H     4.556000000     3.128000000     2.561000000
H     3.779000000     2.747000000     4.156000000
C     2.463000000     3.320000000     2.631000000
C     2.565000000     4.043000000     1.458000000
H     3.486000000     4.049000000     0.881000000
C     1.205000000     3.293000000     3.345000000
C     0.130000000     3.926000000     2.794000000
H    -0.863000000     3.861000000     3.231000000
C     0.202000000     4.639000000     1.636000000
O    -0.944000000     5.108000000     1.040000000
C    -1.490000000     4.282000000    -0.003000000
C    -2.975000000     4.048000000     0.066000000
C    -3.763000000     3.815000000    -1.044000000
H    -3.340000000     3.822000000    -2.045000000
C    -3.588000000     4.035000000     1.300000000
H    -2.933000000     4.157000000     2.159000000
O    -1.113000000     4.725000000    -1.319000000
H    -1.133000000     3.258000000     0.181000000
C     1.451000000     4.716000000     0.932000000
C     1.664000000     5.475000000    -0.391000000
H     2.708000000     5.781000000    -0.483000000
H     0.975000000     6.322000000    -0.438000000
C     1.335000000     4.593000000    -1.594000000
C     2.376000000     3.923000000    -2.251000000
H     3.398000000     4.131000000    -1.946000000
C     0.011000000     4.173000000    -1.908000000
C    -0.162000000     3.248000000    -2.984000000
H    -1.175000000     3.081000000    -3.341000000
C     0.891000000     2.581000000    -3.614000000
O     0.586000000     1.645000000    -4.570000000
C     0.690000000     0.273000000    -4.103000000
C    -0.449000000    -0.604000000    -4.589000000
C    -1.732000000    -0.149000000    -4.434000000
H    -1.941000000     0.841000000    -4.037000000
C    -0.154000000    -1.907000000    -4.991000000
H     0.843000000    -2.311000000    -5.140000000
O     1.959000000    -0.236000000    -4.611000000
H     0.681000000     0.230000000    -3.004000000
C     2.193000000     2.948000000    -3.254000000
C     3.411000000     2.227000000    -3.819000000
H     4.324000000     2.806000000    -3.664000000
H     3.142000000     2.003000000    -4.853000000
C     3.691000000     0.843000000    -3.293000000
C     2.921000000    -0.249000000    -3.652000000
C     3.077000000    -1.468000000    -2.993000000
H     2.354000000    -2.261000000    -3.170000000
C     3.973000000    -1.526000000    -1.914000000
O     3.951000000    -2.723000000    -1.219000000
C     2.945000000    -2.715000000    -0.186000000
H     2.258000000    -1.861000000    -0.278000000
C     2.153000000    -4.018000000    -0.085000000
C     1.624000000    -4.484000000     1.155000000
H     1.804000000    -3.910000000     2.060000000
C     1.817000000    -4.765000000    -1.199000000
H     2.166000000    -4.571000000    -2.210000000
C     0.997000000    -5.965000000    -1.153000000
O     0.574000000    -6.671000000    -2.218000000
C     0.490000000    -6.309000000     0.129000000
H    -0.094000000    -7.226000000     0.101000000
C     0.819000000    -5.629000000     1.275000000
O     0.352000000    -6.103000000     2.536000000
C     0.771000000    -5.395000000     3.706000000
C    -0.145000000    -4.545000000     4.339000000
H    -1.054000000    -4.243000000     3.826000000
C     1.866000000    -5.943000000     4.349000000
H     2.487000000    -6.730000000     3.929000000
C     2.228000000    -5.342000000     5.576000000
H     3.083000000    -5.653000000     6.170000000
C     1.324000000    -4.486000000     6.244000000
H     1.582000000    -4.111000000     7.231000000
C     0.210000000    -4.051000000     5.607000000
O    -0.659000000    -3.203000000     6.222000000
C    -0.890000000    -1.850000000     5.983000000
C    -2.192000000    -1.303000000     6.086000000
H    -2.983000000    -1.933000000     6.485000000
C    -2.487000000    -0.014000000     5.610000000
O    -3.819000000     0.465000000     5.609000000
C    -4.192000000     1.801000000     5.407000000
C    -4.876000000     2.086000000     4.237000000
H    -5.118000000     1.264000000     3.567000000
C    -3.665000000     2.869000000     6.127000000
H    -3.038000000     2.755000000     7.007000000
C    -3.870000000     4.168000000     5.696000000
H    -3.431000000     5.061000000     6.134000000
C    -4.579000000     4.451000000     4.538000000
H    -4.628000000     5.492000000     4.230000000
C    -5.135000000     3.398000000     3.789000000
O    -5.688000000     3.659000000     2.534000000
C    -4.970000000     3.777000000     1.381000000
C    -5.722000000     3.457000000     0.271000000
H    -6.776000000     3.266000000     0.459000000
C    -5.150000000     3.430000000    -0.952000000
O    -5.916000000     3.079000000    -2.084000000
C    -5.412000000     2.548000000    -3.250000000
C    -4.967000000     1.219000000    -3.319000000
H    -4.964000000     0.601000000    -2.425000000
C    -5.326000000     3.327000000    -4.392000000
H    -5.548000000     4.390000000    -4.345000000
C    -4.857000000     2.807000000    -5.571000000
H    -4.875000000     3.426000000    -6.463000000
C    -4.459000000     1.487000000    -5.673000000
H    -4.026000000     1.153000000    -6.613000000
C    -4.450000000     0.706000000    -4.524000000
O    -4.059000000    -0.631000000    -4.553000000
C    -2.795000000    -1.031000000    -4.827000000
C    -2.514000000    -2.354000000    -5.200000000
H    -3.311000000    -3.036000000    -5.488000000
C    -1.173000000    -2.776000000    -5.292000000
O    -0.971000000    -4.026000000    -5.816000000
C    -0.082000000    -4.939000000    -5.395000000
C     0.648000000    -5.785000000    -6.239000000
H     0.577000000    -5.701000000    -7.320000000
C     1.339000000    -6.798000000    -5.765000000
H     1.820000000    -7.557000000    -6.377000000
C     1.327000000    -7.090000000    -4.377000000
H     2.042000000    -7.775000000    -3.928000000
C     0.630000000    -6.264000000    -3.472000000
C    -0.194000000    -5.278000000    -4.042000000
H    -0.845000000    -4.686000000    -3.404000000
C    -1.229000000    -2.258000000    -0.525000000
H    -1.498000000    -3.193000000    -1.010000000
C    -0.303000000    -1.273000000    -1.046000000
H     0.286000000    -1.510000000    -1.928000000
C    -0.017000000    -0.108000000    -0.340000000
H     0.787000000     0.580000000    -0.718000000
C    -0.752000000     0.194000000     0.790000000
H    -0.615000000     1.194000000     1.193000000
C    -1.699000000    -0.732000000     1.317000000
H    -2.260000000    -0.425000000     2.196000000
C    -1.914000000    -1.947000000     0.629000000
C    -2.999000000    -2.846000000     1.151000000
O    -3.692000000    -2.517000000     2.088000000
O    -3.045000000    -4.021000000     0.784000000
O    -4.075000000    -5.498000000    -4.273000000
H    -3.883000000    -5.388000000    -3.342000000
H    -3.215000000    -5.579000000    -4.687000000
O    -0.799000000    -8.603000000     3.848000000
H    -0.319000000    -7.850000000     3.505000000
H    -1.161000000    -8.297000000     4.680000000
O    -2.575000000    -6.623000000     1.473000000
H    -2.852000000    -5.727000000     1.284000000
H    -1.621000000    -6.573000000     1.527000000
O    -6.178000000    -1.729000000     0.247000000
H    -6.870000000    -1.282000000     0.735000000
H    -5.486000000    -1.876000000     0.892000000
O    -8.064000000     0.063000000     2.976000000
H    -7.314000000    -0.514000000     3.122000000
H    -8.337000000    -0.122000000     2.077000000
O    -7.135000000    -4.528000000    -4.233000000
H    -6.980000000    -4.015000000    -3.440000000
H    -6.318000000    -4.457000000    -4.727000000
O    -5.764000000    -4.631000000     0.910000000
H    -5.489000000    -5.206000000     0.196000000
H    -4.958000000    -4.199000000     1.194000000
O    -8.348000000    -4.090000000     1.592000000
H    -8.255000000    -3.672000000     2.449000000
H    -7.500000000    -3.958000000     1.168000000
O    -7.471000000    -3.585000000     4.184000000
H    -7.012000000    -4.338000000     3.811000000
H    -7.817000000    -3.904000000     5.017000000
O    -3.339000000    -6.164000000     3.967000000
H    -3.097000000    -6.974000000     4.415000000
H    -3.101000000    -6.316000000     3.053000000
O    -3.368000000    -5.119000000    -1.688000000
H    -3.207000000    -4.743000000    -0.822000000
H    -3.164000000    -6.049000000    -1.587000000
O    -5.146000000    -4.659000000     6.647000000
H    -4.455000000    -5.240000000     6.968000000
H    -4.727000000    -4.151000000     5.953000000
O    -6.341000000    -5.912000000     3.296000000
H    -5.477000000    -5.503000000     3.336000000
H    -6.571000000    -5.896000000     2.366000000
O    -5.953000000    -1.742000000     3.165000000
H    -6.277000000    -2.486000000     3.674000000
H    -5.036000000    -1.952000000     2.992000000
O    -4.007000000    -3.684000000     4.451000000
H    -3.763000000    -3.359000000     3.584000000
H    -3.620000000    -4.559000000     4.496000000
O    -2.940000000    -7.743000000    -1.276000000
H    -3.069000000    -7.726000000    -0.328000000
H    -2.173000000    -8.301000000    -1.404000000
O    -6.406000000    -2.926000000    -2.098000000
H    -5.669000000    -3.527000000    -1.984000000
H    -6.436000000    -2.427000000    -1.281000000
O    -8.797000000    -0.569000000     0.371000000
H    -8.409000000     0.001000000    -0.293000000
H    -9.192000000    -1.283000000    -0.128000000
O    -6.886000000    -1.806000000     6.683000000
H    -6.471000000    -2.088000000     5.868000000
H    -6.504000000    -0.947000000     6.862000000
