215
-1487.05117
C    -1.229000000     2.577000000     4.592000000
H    -0.990000000     3.447000000     3.987000000
C    -0.246000000     1.590000000     4.615000000
C    -0.610000000     0.431000000     5.307000000
H     0.174000000    -0.316000000     5.409000000
C     1.072000000     1.697000000     3.827000000
O     1.269000000     3.120000000     3.620000000
H     0.953000000     1.243000000     2.832000000
O     2.202000000     1.141000000     4.444000000
C     3.009000000     0.481000000     3.533000000
C     2.832000000    -0.877000000     3.536000000
H     2.140000000    -1.367000000     4.216000000
C     3.627000000    -1.610000000     2.667000000
O     3.236000000    -2.938000000     2.535000000
C     4.560000000    -1.012000000     1.801000000
C     5.304000000    -1.774000000     0.694000000
H     6.300000000    -1.377000000     0.485000000
C     4.471000000    -1.769000000    -0.551000000
C     4.769000000    -0.871000000    -1.619000000
H     5.560000000    -0.138000000    -1.481000000
H     5.380000000    -2.833000000     0.948000000
C     4.620000000     0.366000000     1.768000000
H     5.311000000     0.832000000     1.071000000
C     3.868000000     1.164000000     2.649000000
C     4.004000000     2.701000000     2.757000000
H     5.020000000     3.009000000     2.503000000
H     3.794000000     2.951000000     3.799000000
C     3.026000000     3.426000000     1.912000000
C     3.346000000     3.837000000     0.618000000
H     4.291000000     3.600000000     0.137000000
C     1.700000000     3.521000000     2.346000000
C     0.724000000     4.141000000     1.525000000
H    -0.298000000     4.223000000     1.886000000
C     1.032000000     4.593000000     0.219000000
O     0.020000000     4.821000000    -0.680000000
C    -0.370000000     3.891000000    -1.626000000
C    -1.915000000     3.868000000    -1.698000000
C    -2.618000000     3.702000000    -2.869000000
H    -2.137000000     3.607000000    -3.839000000
C    -2.698000000     4.063000000    -0.535000000
H    -2.204000000     4.256000000     0.414000000
O     0.239000000     4.155000000    -2.876000000
H    -0.078000000     2.898000000    -1.253000000
C     2.328000000     4.305000000    -0.235000000
C     2.791000000     4.550000000    -1.696000000
H     3.849000000     4.820000000    -1.663000000
H     2.351000000     5.483000000    -2.052000000
C     2.525000000     3.351000000    -2.602000000
C     3.451000000     2.394000000    -3.006000000
H     4.477000000     2.465000000    -2.654000000
C     1.248000000     3.313000000    -3.229000000
C     0.936000000     2.260000000    -4.090000000
H    -0.071000000     2.153000000    -4.487000000
C     1.825000000     1.289000000    -4.346000000
O     1.394000000     0.186000000    -4.929000000
C     1.108000000    -1.002000000    -4.147000000
C    -0.215000000    -1.684000000    -4.590000000
C    -1.375000000    -0.933000000    -4.909000000
H    -1.399000000     0.153000000    -4.890000000
C    -0.257000000    -3.108000000    -4.491000000
H     0.552000000    -3.635000000    -3.991000000
O     2.239000000    -1.886000000    -4.065000000
H     0.924000000    -0.565000000    -3.154000000
C     3.132000000     1.312000000    -3.800000000
C     4.106000000     0.145000000    -3.908000000
H     5.085000000     0.594000000    -3.728000000
H     3.972000000    -0.424000000    -4.830000000
C     3.925000000    -0.822000000    -2.759000000
C     3.008000000    -1.845000000    -2.905000000
C     2.793000000    -2.842000000    -1.935000000
H     2.019000000    -3.596000000    -2.046000000
C     3.551000000    -2.841000000    -0.744000000
O     3.189000000    -3.736000000     0.263000000
C     2.410000000    -3.311000000     1.450000000
H     1.867000000    -2.390000000     1.191000000
C     1.259000000    -4.286000000     1.758000000
C     0.825000000    -4.381000000     3.048000000
H     1.314000000    -3.947000000     3.916000000
C     0.635000000    -4.930000000     0.712000000
H     0.928000000    -4.814000000    -0.328000000
C    -0.613000000    -5.567000000     0.959000000
O    -1.410000000    -6.127000000    -0.033000000
C    -1.036000000    -5.668000000     2.238000000
H    -1.971000000    -6.122000000     2.555000000
C    -0.349000000    -5.087000000     3.288000000
O    -0.869000000    -5.174000000     4.587000000
C    -0.741000000    -4.184000000     5.591000000
C    -1.516000000    -3.050000000     5.545000000
H    -2.135000000    -2.882000000     4.668000000
C    -0.008000000    -4.548000000     6.734000000
H     0.535000000    -5.490000000     6.738000000
C     0.040000000    -3.650000000     7.830000000
H     0.605000000    -3.847000000     8.738000000
C    -0.780000000    -2.502000000     7.751000000
H    -1.053000000    -1.920000000     8.628000000
C    -1.389000000    -2.109000000     6.551000000
O    -2.188000000    -0.969000000     6.510000000
C    -1.894000000     0.209000000     5.887000000
C    -2.887000000     1.223000000     5.755000000
H    -3.868000000     1.008000000     6.170000000
C    -2.486000000     2.435000000     5.232000000
O    -3.473000000     3.460000000     5.246000000
C    -3.577000000     4.254000000     4.120000000
C    -4.085000000     3.748000000     2.949000000
H    -4.374000000     2.703000000     2.874000000
C    -3.319000000     5.619000000     4.284000000
H    -3.094000000     5.981000000     5.283000000
C    -3.530000000     6.429000000     3.164000000
H    -3.435000000     7.507000000     3.268000000
C    -3.971000000     5.934000000     1.959000000
H    -4.091000000     6.605000000     1.112000000
C    -4.193000000     4.558000000     1.823000000
O    -4.767000000     4.073000000     0.631000000
C    -4.071000000     3.926000000    -0.528000000
C    -4.704000000     3.739000000    -1.687000000
H    -5.789000000     3.791000000    -1.684000000
C    -4.024000000     3.624000000    -2.880000000
O    -4.791000000     3.514000000    -4.032000000
C    -4.464000000     2.582000000    -5.025000000
C    -4.391000000     1.279000000    -4.637000000
H    -4.788000000     0.924000000    -3.689000000
C    -4.094000000     3.025000000    -6.281000000
H    -4.143000000     4.095000000    -6.462000000
C    -3.544000000     2.119000000    -7.122000000
H    -3.137000000     2.448000000    -8.074000000
C    -3.402000000     0.777000000    -6.787000000
H    -2.977000000     0.048000000    -7.472000000
C    -3.893000000     0.379000000    -5.501000000
O    -3.757000000    -0.932000000    -5.117000000
C    -2.577000000    -1.634000000    -5.145000000
C    -2.597000000    -3.044000000    -5.097000000
H    -3.539000000    -3.580000000    -5.176000000
C    -1.423000000    -3.767000000    -4.800000000
O    -1.503000000    -5.143000000    -4.733000000
C    -1.012000000    -5.864000000    -3.663000000
C    -0.339000000    -7.010000000    -3.915000000
H    -0.207000000    -7.305000000    -4.953000000
C    -0.058000000    -7.933000000    -2.872000000
H     0.482000000    -8.857000000    -3.062000000
C    -0.361000000    -7.605000000    -1.572000000
H    -0.036000000    -8.172000000    -0.704000000
C    -0.937000000    -6.382000000    -1.306000000
C    -1.266000000    -5.503000000    -2.323000000
H    -1.841000000    -4.626000000    -2.037000000
C    -1.276000000    -1.868000000     0.083000000
H    -1.530000000    -2.910000000    -0.096000000
C    -0.291000000    -1.219000000    -0.687000000
H     0.128000000    -1.711000000    -1.561000000
C    -0.087000000     0.109000000    -0.495000000
H     0.546000000     0.749000000    -1.067000000
C    -0.725000000     0.766000000     0.557000000
H    -0.493000000     1.809000000     0.756000000
C    -1.684000000     0.120000000     1.344000000
H    -2.075000000     0.739000000     2.148000000
C    -1.997000000    -1.206000000     1.050000000
C    -3.153000000    -1.876000000     1.823000000
O    -3.896000000    -1.174000000     2.470000000
O    -3.518000000    -3.024000000     1.599000000
O    -6.144000000     0.178000000    -0.657000000
H    -6.225000000     0.753000000     0.105000000
H    -5.215000000    -0.052000000    -0.685000000
O    -4.770000000    -7.047000000     6.249000000
H    -4.961000000    -7.065000000     7.187000000
H    -4.546000000    -6.135000000     6.067000000
O    -4.214000000    -5.259000000     3.390000000
H    -3.745000000    -4.701000000     2.770000000
H    -4.625000000    -4.646000000     4.000000000
O    -3.241000000     0.431000000    -1.686000000
H    -2.678000000    -0.212000000    -1.254000000
H    -3.017000000     1.264000000    -1.270000000
O    -3.527000000    -7.920000000     3.963000000
H    -3.679000000    -7.891000000     4.907000000
H    -3.791000000    -7.054000000     3.651000000
O    -6.124000000     0.249000000     2.132000000
H    -6.860000000    -0.352000000     2.014000000
H    -5.361000000    -0.322000000     2.227000000
O    -3.597000000    -8.550000000     0.413000000
H    -3.042000000    -7.791000000     0.237000000
H    -4.381000000    -8.184000000     0.822000000
O    -7.823000000    -2.996000000     4.349000000
H    -7.091000000    -2.925000000     3.736000000
H    -8.051000000    -2.090000000     4.556000000
O    -4.454000000    -4.872000000    -0.092000000
H    -5.095000000    -4.212000000    -0.355000000
H    -3.755000000    -4.372000000     0.329000000
O    -5.675000000    -6.954000000     1.067000000
H    -5.149000000    -6.212000000     0.768000000
H    -6.546000000    -6.584000000     1.218000000
O    -6.561000000    -7.321000000     3.704000000
H    -6.222000000    -6.860000000     2.937000000
H    -5.886000000    -7.201000000     4.373000000
O    -5.274000000    -4.178000000     5.534000000
H    -6.227000000    -4.261000000     5.561000000
H    -5.115000000    -3.235000000     5.574000000
O    -6.216000000    -2.789000000     2.076000000
H    -5.263000000    -2.882000000     2.060000000
H    -6.490000000    -2.979000000     1.179000000
O    -6.381000000    -3.320000000    -0.792000000
H    -5.775000000    -2.927000000    -1.420000000
H    -7.227000000    -2.921000000    -0.994000000
O    -4.727000000    -1.942000000    -2.696000000
H    -4.413000000    -1.199000000    -2.181000000
H    -4.586000000    -1.679000000    -3.606000000
O    -4.447000000    -1.594000000     5.037000000
H    -3.707000000    -1.355000000     5.596000000
H    -4.154000000    -1.387000000     4.150000000
O    -7.153000000     3.068000000     2.106000000
H    -6.859000000     3.748000000     1.499000000
H    -6.484000000     2.386000000     2.042000000
O    -5.602000000    -6.666000000    -2.468000000
H    -5.300000000    -6.317000000    -1.629000000
H    -6.554000000    -6.571000000    -2.438000000
O    -6.108000000     0.973000000     4.804000000
H    -5.492000000     0.243000000     4.863000000
H    -6.424000000     0.948000000     3.900000000
