215
-1457.23418
C    -1.451000000     3.057000000     4.313000000
H    -1.215000000     4.083000000     4.042000000
C    -0.476000000     2.077000000     4.306000000
C    -0.874000000     0.788000000     4.710000000
H    -0.192000000    -0.058000000     4.708000000
C     0.903000000     2.189000000     3.618000000
O     1.356000000     3.607000000     3.504000000
H     0.810000000     1.845000000     2.577000000
O     1.956000000     1.424000000     4.356000000
C     2.765000000     0.662000000     3.520000000
C     2.691000000    -0.750000000     3.520000000
H     1.993000000    -1.196000000     4.224000000
C     3.496000000    -1.494000000     2.678000000
O     3.362000000    -2.849000000     2.713000000
C     4.343000000    -0.911000000     1.785000000
C     5.184000000    -1.790000000     0.834000000
H     6.145000000    -1.317000000     0.620000000
C     4.500000000    -1.974000000    -0.495000000
C     4.742000000    -1.025000000    -1.493000000
H     5.409000000    -0.178000000    -1.352000000
H     5.428000000    -2.741000000     1.312000000
C     4.413000000     0.424000000     1.758000000
H     5.083000000     0.903000000     1.048000000
C     3.706000000     1.288000000     2.636000000
C     3.968000000     2.798000000     2.623000000
H     5.002000000     2.972000000     2.319000000
H     3.774000000     3.182000000     3.627000000
C     2.985000000     3.552000000     1.708000000
C     3.285000000     3.806000000     0.360000000
H     4.234000000     3.451000000    -0.035000000
C     1.709000000     3.890000000     2.224000000
C     0.812000000     4.423000000     1.334000000
H    -0.188000000     4.607000000     1.717000000
C     1.141000000     4.586000000    -0.014000000
O     0.085000000     4.971000000    -0.888000000
C    -0.529000000     3.898000000    -1.759000000
C    -2.018000000     3.845000000    -1.791000000
C    -2.690000000     3.018000000    -2.733000000
H    -2.076000000     2.499000000    -3.465000000
C    -2.812000000     4.480000000    -0.842000000
H    -2.282000000     5.166000000    -0.186000000
O     0.034000000     3.970000000    -3.149000000
H    -0.222000000     2.894000000    -1.429000000
C     2.370000000     4.320000000    -0.481000000
C     2.675000000     4.524000000    -1.990000000
H     3.729000000     4.767000000    -2.142000000
H     2.128000000     5.394000000    -2.358000000
C     2.332000000     3.278000000    -2.791000000
C     3.383000000     2.298000000    -2.998000000
H     4.426000000     2.491000000    -2.762000000
C     1.074000000     3.072000000    -3.433000000
C     0.815000000     1.782000000    -3.958000000
H    -0.188000000     1.465000000    -4.234000000
C     1.806000000     0.845000000    -4.083000000
O     1.481000000    -0.359000000    -4.620000000
C     1.109000000    -1.495000000    -3.823000000
C    -0.100000000    -2.223000000    -4.337000000
C    -0.977000000    -1.599000000    -5.229000000
H    -0.785000000    -0.586000000    -5.573000000
C    -0.461000000    -3.457000000    -3.821000000
H     0.196000000    -3.711000000    -2.994000000
O     2.190000000    -2.388000000    -3.813000000
H     0.852000000    -1.210000000    -2.792000000
C     3.105000000     1.051000000    -3.595000000
C     4.142000000    -0.076000000    -3.727000000
H     5.166000000     0.301000000    -3.693000000
H     4.016000000    -0.533000000    -4.710000000
C     3.994000000    -1.170000000    -2.694000000
C     3.092000000    -2.265000000    -2.819000000
C     2.935000000    -3.246000000    -1.813000000
H     2.229000000    -4.067000000    -1.912000000
C     3.585000000    -3.009000000    -0.566000000
O     3.172000000    -3.773000000     0.442000000
C     2.469000000    -3.277000000     1.660000000
H     1.909000000    -2.379000000     1.359000000
C     1.547000000    -4.343000000     2.164000000
C     1.092000000    -4.392000000     3.475000000
H     1.527000000    -3.696000000     4.188000000
C     0.799000000    -5.077000000     1.197000000
H     0.978000000    -4.929000000     0.135000000
C    -0.193000000    -5.934000000     1.565000000
O    -0.702000000    -6.887000000     0.636000000
C    -0.621000000    -5.922000000     2.958000000
H    -1.326000000    -6.670000000     3.309000000
C     0.012000000    -5.111000000     3.882000000
O    -0.414000000    -5.025000000     5.223000000
C    -0.609000000    -3.812000000     5.800000000
C    -1.575000000    -2.900000000     5.353000000
H    -2.203000000    -3.192000000     4.515000000
C     0.218000000    -3.445000000     6.919000000
H     0.958000000    -4.127000000     7.331000000
C     0.011000000    -2.237000000     7.617000000
H     0.586000000    -1.939000000     8.490000000
C    -1.004000000    -1.443000000     7.153000000
H    -1.237000000    -0.563000000     7.748000000
C    -1.739000000    -1.641000000     5.995000000
O    -2.663000000    -0.771000000     5.546000000
C    -2.179000000     0.524000000     5.154000000
C    -3.081000000     1.584000000     5.275000000
H    -4.107000000     1.375000000     5.567000000
C    -2.699000000     2.867000000     4.802000000
O    -3.570000000     3.876000000     4.759000000
C    -3.738000000     4.684000000     3.688000000
C    -4.102000000     4.239000000     2.420000000
H    -4.155000000     3.163000000     2.279000000
C    -3.685000000     6.026000000     4.025000000
H    -3.318000000     6.351000000     4.995000000
C    -4.013000000     6.996000000     3.072000000
H    -3.946000000     8.070000000     3.227000000
C    -4.379000000     6.501000000     1.757000000
H    -4.694000000     7.291000000     1.081000000
C    -4.467000000     5.124000000     1.463000000
O    -4.978000000     4.719000000     0.276000000
C    -4.208000000     4.249000000    -0.776000000
C    -4.819000000     3.376000000    -1.696000000
H    -5.872000000     3.115000000    -1.630000000
C    -3.988000000     2.655000000    -2.597000000
O    -4.614000000     1.648000000    -3.293000000
C    -4.236000000     1.315000000    -4.593000000
C    -3.729000000     0.081000000    -4.909000000
H    -3.426000000    -0.550000000    -4.077000000
C    -4.528000000     2.185000000    -5.643000000
H    -4.827000000     3.209000000    -5.433000000
C    -4.374000000     1.741000000    -6.924000000
H    -4.658000000     2.436000000    -7.710000000
C    -3.817000000     0.528000000    -7.271000000
H    -3.622000000     0.224000000    -8.296000000
C    -3.464000000    -0.315000000    -6.221000000
O    -3.053000000    -1.620000000    -6.461000000
C    -2.130000000    -2.240000000    -5.704000000
C    -2.458000000    -3.473000000    -5.148000000
H    -3.362000000    -4.011000000    -5.422000000
C    -1.591000000    -4.079000000    -4.200000000
O    -1.956000000    -5.239000000    -3.632000000
C    -1.108000000    -6.013000000    -2.934000000
C     0.067000000    -6.443000000    -3.428000000
H     0.197000000    -6.283000000    -4.496000000
C     1.074000000    -7.092000000    -2.670000000
H     1.877000000    -7.592000000    -3.206000000
C     0.810000000    -7.193000000    -1.258000000
H     1.485000000    -7.802000000    -0.662000000
C    -0.447000000    -6.819000000    -0.752000000
C    -1.386000000    -6.173000000    -1.549000000
H    -2.387000000    -5.955000000    -1.184000000
C    -0.514000000    -1.514000000     0.459000000
H    -0.236000000    -2.563000000     0.512000000
C     0.423000000    -0.693000000    -0.198000000
H     1.316000000    -1.051000000    -0.704000000
C     0.217000000     0.673000000    -0.111000000
H     0.941000000     1.360000000    -0.571000000
C    -0.825000000     1.207000000     0.595000000
H    -0.810000000     2.278000000     0.779000000
C    -1.754000000     0.408000000     1.278000000
H    -2.614000000     0.862000000     1.764000000
C    -1.603000000    -0.979000000     1.135000000
C    -2.760000000    -1.916000000     1.556000000
O    -3.656000000    -1.604000000     2.275000000
O    -2.720000000    -3.003000000     0.992000000
O    -7.162000000     0.958000000    -1.571000000
H    -6.294000000     0.777000000    -1.932000000
H    -7.486000000     0.104000000    -1.286000000
O    -6.778000000    -6.280000000    -0.432000000
H    -7.132000000    -5.636000000    -1.046000000
H    -6.270000000    -5.761000000     0.192000000
O    -3.640000000    -4.929000000     2.866000000
H    -2.937000000    -4.408000000     2.479000000
H    -4.363000000    -4.312000000     2.978000000
O    -3.121000000    -3.140000000    -1.786000000
H    -2.712000000    -3.095000000    -0.922000000
H    -2.389000000    -3.087000000    -2.401000000
O    -4.960000000     0.290000000     1.072000000
H    -5.314000000    -0.426000000     0.545000000
H    -4.231000000    -0.104000000     1.552000000
O    -3.650000000    -6.979000000     0.855000000
H    -4.000000000    -6.113000000     0.643000000
H    -3.141000000    -6.842000000     1.654000000
O    -8.289000000    -3.491000000     3.680000000
H    -7.490000000    -3.938000000     3.402000000
H    -8.029000000    -2.575000000     3.781000000
O    -4.881000000    -4.510000000     0.136000000
H    -4.042000000    -4.085000000     0.315000000
H    -5.047000000    -4.332000000    -0.790000000
O    -4.777000000    -6.875000000     4.085000000
H    -4.217000000    -6.306000000     3.556000000
H    -5.581000000    -6.962000000     3.573000000
O    -8.502000000    -0.683000000     3.033000000
H    -9.209000000    -0.707000000     3.679000000
H    -8.004000000     0.105000000     3.252000000
O    -5.875000000    -3.741000000     6.058000000
H    -5.715000000    -4.588000000     6.474000000
H    -6.764000000    -3.808000000     5.711000000
O    -5.813000000    -3.114000000     2.363000000
H    -5.129000000    -2.447000000     2.308000000
H    -5.795000000    -3.546000000     1.508000000
O    -6.531000000    -1.835000000    -0.326000000
H    -6.552000000    -2.214000000    -1.204000000
H    -7.323000000    -2.166000000     0.097000000
O    -5.081000000    -1.887000000     7.984000000
H    -5.328000000    -1.086000000     7.521000000
H    -4.769000000    -2.475000000     7.296000000
O    -5.329000000    -3.151000000    -3.503000000
H    -4.572000000    -2.714000000    -3.114000000
H    -5.461000000    -2.703000000    -4.338000000
O    -5.521000000    -0.709000000     4.894000000
H    -5.818000000    -1.468000000     5.396000000
H    -5.030000000    -1.083000000     4.163000000
O    -7.190000000     2.729000000     1.058000000
H    -6.555000000     2.219000000     0.555000000
H    -7.203000000     2.312000000     1.919000000
O    -7.353000000    -4.339000000    -2.106000000
H    -8.022000000    -3.669000000    -2.243000000
H    -6.660000000    -4.116000000    -2.727000000
O    -6.445000000     1.459000000     3.376000000
H    -6.150000000     0.874000000     4.074000000
H    -5.926000000     1.203000000     2.614000000
