215
-1455.75444
C     3.887000000     0.267000000    -3.109000000
H     3.411000000    -0.538000000    -3.662000000
C     4.233000000    -0.003000000    -1.773000000
C     4.933000000     1.020000000    -1.070000000
H     5.149000000     0.891000000    -0.012000000
C     3.836000000    -1.291000000    -1.060000000
O     3.677000000    -2.340000000    -1.935000000
H     2.827000000    -0.988000000    -0.743000000
O     4.726000000    -1.636000000     0.054000000
C     4.139000000    -2.025000000     1.195000000
C     4.034000000    -1.036000000     2.193000000
H     4.467000000    -0.047000000     2.068000000
C     3.311000000    -1.385000000     3.286000000
O     3.014000000    -0.330000000     4.027000000
C     2.575000000    -2.595000000     3.444000000
C     1.505000000    -2.736000000     4.608000000
H     1.400000000    -3.802000000     4.822000000
C     0.104000000    -2.208000000     4.184000000
C    -0.863000000    -3.133000000     3.741000000
H    -0.618000000    -4.191000000     3.763000000
H     1.903000000    -2.328000000     5.539000000
C     2.745000000    -3.544000000     2.458000000
H     2.180000000    -4.463000000     2.592000000
C     3.465000000    -3.270000000     1.310000000
C     3.637000000    -4.288000000     0.217000000
H     3.552000000    -5.281000000     0.661000000
H     4.620000000    -4.192000000    -0.249000000
C     2.485000000    -4.180000000    -0.837000000
C     1.288000000    -4.908000000    -0.657000000
H     1.189000000    -5.597000000     0.178000000
C     2.574000000    -3.233000000    -1.831000000
C     1.446000000    -3.020000000    -2.655000000
H     1.553000000    -2.238000000    -3.403000000
C     0.293000000    -3.749000000    -2.607000000
O    -0.659000000    -3.518000000    -3.614000000
C    -1.660000000    -2.523000000    -3.274000000
C    -1.967000000    -1.564000000    -4.359000000
C    -3.314000000    -1.204000000    -4.526000000
H    -4.096000000    -1.782000000    -4.038000000
C    -1.021000000    -0.799000000    -5.025000000
H     0.023000000    -1.087000000    -4.938000000
O    -2.824000000    -3.306000000    -2.751000000
H    -1.257000000    -1.876000000    -2.481000000
C     0.180000000    -4.699000000    -1.554000000
C    -1.133000000    -5.349000000    -1.349000000
H    -1.083000000    -6.238000000    -0.717000000
H    -1.443000000    -5.760000000    -2.312000000
C    -2.129000000    -4.400000000    -0.692000000
C    -2.398000000    -4.577000000     0.660000000
H    -1.951000000    -5.409000000     1.198000000
C    -2.812000000    -3.410000000    -1.359000000
C    -3.736000000    -2.594000000    -0.693000000
H    -4.299000000    -1.816000000    -1.202000000
C    -3.914000000    -2.726000000     0.664000000
O    -4.653000000    -1.749000000     1.310000000
C    -3.867000000    -0.662000000     1.853000000
C    -4.445000000     0.770000000     1.518000000
C    -5.206000000     0.989000000     0.304000000
H    -5.338000000     0.109000000    -0.320000000
C    -4.099000000     1.882000000     2.253000000
H    -3.548000000     1.761000000     3.183000000
O    -3.634000000    -0.819000000     3.249000000
H    -2.903000000    -0.671000000     1.323000000
C    -3.222000000    -3.719000000     1.388000000
C    -3.142000000    -3.731000000     2.891000000
H    -2.994000000    -4.743000000     3.274000000
H    -4.067000000    -3.454000000     3.401000000
C    -2.134000000    -2.686000000     3.437000000
C    -2.476000000    -1.303000000     3.605000000
C    -1.456000000    -0.401000000     3.900000000
H    -1.693000000     0.660000000     3.878000000
C    -0.216000000    -0.860000000     4.220000000
O     0.724000000    -0.004000000     4.601000000
C     1.769000000     0.402000000     3.721000000
H     1.501000000     0.110000000     2.695000000
C     1.968000000     1.906000000     3.918000000
C     3.224000000     2.450000000     3.625000000
H     4.120000000     1.908000000     3.333000000
C     0.933000000     2.783000000     4.315000000
H    -0.030000000     2.292000000     4.429000000
C     1.135000000     4.165000000     4.368000000
O     0.083000000     4.897000000     4.722000000
C     2.406000000     4.705000000     4.033000000
H     2.559000000     5.781000000     4.008000000
C     3.436000000     3.822000000     3.608000000
O     4.768000000     4.239000000     3.379000000
C     5.693000000     3.780000000     2.434000000
C     5.400000000     3.592000000     1.127000000
H     4.388000000     3.752000000     0.762000000
C     6.997000000     3.663000000     2.892000000
H     7.139000000     3.727000000     3.968000000
C     8.017000000     3.346000000     2.015000000
H     9.018000000     3.240000000     2.423000000
C     7.733000000     3.032000000     0.666000000
H     8.484000000     2.631000000    -0.009000000
C     6.397000000     3.251000000     0.195000000
O     6.092000000     3.197000000    -1.169000000
C     5.391000000     2.161000000    -1.760000000
C     5.047000000     2.378000000    -3.087000000
H     5.289000000     3.348000000    -3.513000000
C     4.292000000     1.473000000    -3.747000000
O     4.140000000     1.600000000    -5.124000000
C     3.190000000     1.138000000    -5.927000000
C     1.818000000     1.411000000    -5.701000000
H     1.414000000     1.954000000    -4.850000000
C     3.548000000     0.416000000    -7.040000000
H     4.602000000     0.198000000    -7.189000000
C     2.626000000    -0.061000000    -7.902000000
H     2.912000000    -0.765000000    -8.680000000
C     1.210000000     0.179000000    -7.692000000
H     0.485000000    -0.131000000    -8.440000000
C     0.861000000     0.845000000    -6.535000000
O    -0.460000000     1.119000000    -6.333000000
C    -1.357000000     0.345000000    -5.732000000
C    -2.727000000     0.677000000    -5.878000000
H    -2.903000000     1.592000000    -6.438000000
C    -3.682000000    -0.091000000    -5.250000000
O    -5.058000000     0.198000000    -5.355000000
C    -5.776000000     0.447000000    -4.247000000
C    -5.469000000     1.360000000    -3.299000000
H    -4.501000000     1.854000000    -3.311000000
C    -6.922000000    -0.308000000    -4.059000000
H    -7.194000000    -1.022000000    -4.831000000
C    -7.794000000    -0.119000000    -2.917000000
H    -8.798000000    -0.521000000    -2.809000000
C    -7.537000000     0.904000000    -2.033000000
H    -8.210000000     1.301000000    -1.278000000
C    -6.332000000     1.578000000    -2.236000000
O    -6.174000000     2.606000000    -1.323000000
C    -5.606000000     2.269000000    -0.067000000
C    -5.208000000     3.297000000     0.779000000
H    -5.474000000     4.319000000     0.523000000
C    -4.439000000     3.136000000     1.877000000
O    -4.202000000     4.302000000     2.674000000
C    -3.402000000     4.343000000     3.786000000
C    -3.966000000     4.157000000     5.097000000
H    -5.034000000     4.052000000     5.267000000
C    -3.178000000     4.266000000     6.262000000
H    -3.587000000     4.331000000     7.266000000
C    -1.786000000     4.398000000     6.078000000
H    -1.101000000     4.449000000     6.920000000
C    -1.217000000     4.573000000     4.773000000
C    -2.010000000     4.466000000     3.651000000
H    -1.771000000     4.537000000     2.593000000
C    -1.668000000     0.907000000    -0.444000000
H    -2.657000000     0.700000000    -0.844000000
C    -0.931000000    -0.158000000     0.023000000
H    -1.300000000    -1.177000000    -0.066000000
C     0.378000000     0.010000000     0.571000000
H     0.941000000    -0.854000000     1.000000000
C     0.851000000     1.333000000     0.718000000
H     1.821000000     1.584000000     1.140000000
C     0.067000000     2.413000000     0.310000000
H     0.424000000     3.412000000     0.551000000
C    -1.206000000     2.236000000    -0.215000000
C    -2.004000000     3.380000000    -0.743000000
O    -1.716000000     4.473000000    -0.274000000
O    -2.696000000     3.263000000    -1.728000000
O    -6.974000000     5.922000000     1.540000000
H    -6.893000000     5.974000000     2.492000000
H    -6.722000000     6.792000000     1.230000000
O    -4.036000000     7.874000000    -3.756000000
H    -4.407000000     7.092000000    -4.165000000
H    -3.100000000     7.686000000    -3.687000000
O    -1.330000000     8.196000000     2.784000000
H    -1.015000000     7.683000000     2.040000000
H    -1.999000000     7.645000000     3.190000000
O    -1.205000000     3.803000000    -6.057000000
H    -0.954000000     3.034000000    -6.568000000
H    -0.713000000     3.718000000    -5.240000000
O    -2.502000000     9.385000000    -1.855000000
H    -3.039000000     8.900000000    -2.482000000
H    -2.785000000     9.063000000    -0.999000000
O    -3.530000000     6.380000000    -0.555000000
H    -2.911000000     5.650000000    -0.526000000
H    -3.268000000     6.944000000     0.173000000
O    -0.660000000     2.990000000    -3.577000000
H    -0.862000000     2.056000000    -3.538000000
H    -1.342000000     3.405000000    -3.048000000
O     2.192000000     5.849000000    -4.721000000
H     1.451000000     6.243000000    -4.261000000
H     2.769000000     6.587000000    -4.921000000
O     0.614000000     7.196000000    -2.230000000
H     0.403000000     8.094000000    -1.974000000
H     0.985000000     6.803000000    -1.440000000
O    -0.392000000     6.603000000     0.712000000
H     0.492000000     6.251000000     0.814000000
H    -0.875000000     5.910000000     0.262000000
O    -1.409000000     6.584000000    -3.919000000
H    -1.808000000     5.742000000    -3.700000000
H    -0.592000000     6.599000000    -3.420000000
O     2.127000000     5.868000000    -0.146000000
H     2.484000000     5.158000000    -0.679000000
H     2.894000000     6.274000000     0.257000000
O    -4.248000000     5.189000000    -2.900000000
H    -3.750000000     4.410000000    -2.652000000
H    -4.157000000     5.780000000    -2.153000000
O     1.830000000     4.004000000    -2.514000000
H     1.955000000     4.707000000    -3.152000000
H     0.980000000     3.625000000    -2.738000000
O    -4.169000000     7.293000000     3.565000000
H    -4.483000000     8.046000000     3.064000000
H    -4.323000000     6.542000000     2.992000000
O    -5.482000000     4.155000000    -5.166000000
H    -4.935000000     4.732000000    -5.700000000
H    -5.282000000     4.403000000    -4.264000000
O    -1.240000000     6.493000000    -6.587000000
H    -1.592000000     6.826000000    -5.762000000
H    -0.993000000     5.589000000    -6.395000000
O     0.517000000     9.336000000     0.414000000
H     0.727000000     9.749000000    -0.424000000
H     0.031000000     8.547000000     0.178000000
O     1.176000000     0.772000000    -2.312000000
H     1.539000000     1.655000000    -2.383000000
H     0.658000000     0.790000000    -1.507000000
