215
-1456.10458
C    -1.900000000     1.710000000     4.845000000
H    -1.273000000     2.595000000     4.779000000
C    -1.320000000     0.441000000     4.663000000
C    -2.110000000    -0.690000000     4.732000000
H    -1.702000000    -1.677000000     4.533000000
C     0.184000000     0.359000000     4.337000000
O     1.036000000     1.494000000     4.772000000
H     0.226000000     0.368000000     3.238000000
O     0.883000000    -0.854000000     4.945000000
C     1.737000000    -1.558000000     4.053000000
C     1.238000000    -2.678000000     3.446000000
H     0.241000000    -2.998000000     3.739000000
C     2.003000000    -3.419000000     2.526000000
O     1.322000000    -4.442000000     1.818000000
C     3.237000000    -2.948000000     2.101000000
C     4.082000000    -3.638000000     0.995000000
H     5.166000000    -3.546000000     1.083000000
C     3.679000000    -3.121000000    -0.354000000
C     4.473000000    -2.113000000    -0.898000000
H     5.296000000    -1.773000000    -0.275000000
H     3.894000000    -4.713000000     1.044000000
C     3.763000000    -1.808000000     2.728000000
H     4.709000000    -1.381000000     2.404000000
C     3.042000000    -1.126000000     3.720000000
C     3.632000000     0.138000000     4.305000000
H     4.701000000     0.060000000     4.097000000
H     3.341000000     0.308000000     5.344000000
C     3.173000000     1.327000000     3.565000000
C     3.929000000     1.817000000     2.515000000
H     4.887000000     1.388000000     2.237000000
C     1.948000000     1.979000000     3.828000000
C     1.489000000     2.979000000     2.975000000
H     0.577000000     3.534000000     3.178000000
C     2.245000000     3.395000000     1.957000000
O     1.639000000     4.290000000     1.128000000
C     1.168000000     3.808000000    -0.226000000
C    -0.180000000     4.470000000    -0.569000000
C    -0.510000000     4.773000000    -1.893000000
H     0.182000000     4.632000000    -2.719000000
C    -1.078000000     4.752000000     0.472000000
H    -0.764000000     4.534000000     1.490000000
O     2.143000000     4.250000000    -1.153000000
H     1.198000000     2.709000000    -0.247000000
C     3.529000000     2.840000000     1.688000000
C     4.375000000     3.358000000     0.523000000
H     5.429000000     3.131000000     0.695000000
H     4.401000000     4.445000000     0.425000000
C     3.976000000     2.655000000    -0.802000000
C     4.572000000     1.460000000    -1.200000000
H     5.399000000     1.023000000    -0.645000000
C     3.070000000     3.308000000    -1.695000000
C     2.710000000     2.666000000    -2.874000000
H     1.868000000     2.945000000    -3.502000000
C     3.322000000     1.472000000    -3.273000000
O     2.823000000     0.749000000    -4.278000000
C     1.875000000    -0.286000000    -3.965000000
C     0.637000000    -0.312000000    -4.756000000
C     0.060000000     0.865000000    -5.145000000
H     0.601000000     1.758000000    -4.841000000
C    -0.133000000    -1.470000000    -4.878000000
H     0.184000000    -2.434000000    -4.487000000
O     2.563000000    -1.639000000    -4.062000000
H     1.531000000     0.021000000    -2.966000000
C     4.333000000     0.842000000    -2.443000000
C     4.957000000    -0.512000000    -2.826000000
H     6.003000000    -0.616000000    -2.530000000
H     5.022000000    -0.650000000    -3.907000000
C     4.187000000    -1.671000000    -2.215000000
C     3.029000000    -2.158000000    -2.856000000
C     2.227000000    -3.158000000    -2.286000000
H     1.274000000    -3.509000000    -2.672000000
C     2.574000000    -3.625000000    -1.017000000
O     1.807000000    -4.594000000    -0.470000000
C     0.797000000    -4.152000000     0.490000000
H     0.617000000    -3.067000000     0.459000000
C    -0.578000000    -4.817000000     0.363000000
C    -1.406000000    -5.105000000     1.494000000
H    -0.980000000    -4.930000000     2.479000000
C    -1.190000000    -4.933000000    -0.927000000
H    -0.693000000    -4.742000000    -1.874000000
C    -2.514000000    -5.348000000    -1.051000000
O    -3.085000000    -5.502000000    -2.297000000
C    -3.280000000    -5.629000000     0.119000000
H    -4.313000000    -5.939000000    -0.016000000
C    -2.738000000    -5.521000000     1.363000000
O    -3.565000000    -5.619000000     2.475000000
C    -3.477000000    -4.983000000     3.689000000
C    -3.867000000    -3.680000000     3.787000000
H    -4.274000000    -3.121000000     2.948000000
C    -3.032000000    -5.639000000     4.837000000
H    -2.735000000    -6.681000000     4.759000000
C    -2.978000000    -5.009000000     5.992000000
H    -2.524000000    -5.519000000     6.838000000
C    -3.418000000    -3.666000000     6.195000000
H    -3.486000000    -3.231000000     7.188000000
C    -3.841000000    -3.019000000     5.025000000
O    -4.327000000    -1.709000000     5.040000000
C    -3.482000000    -0.610000000     4.993000000
C    -3.971000000     0.655000000     5.239000000
H    -5.037000000     0.759000000     5.423000000
C    -3.241000000     1.781000000     5.175000000
O    -3.855000000     2.996000000     5.236000000
C    -3.398000000     4.105000000     4.508000000
C    -3.621000000     4.255000000     3.147000000
H    -4.202000000     3.454000000     2.699000000
C    -2.896000000     5.247000000     5.230000000
H    -2.906000000     5.232000000     6.316000000
C    -2.448000000     6.378000000     4.589000000
H    -1.831000000     7.110000000     5.104000000
C    -2.613000000     6.397000000     3.165000000
H    -2.343000000     7.267000000     2.572000000
C    -3.203000000     5.378000000     2.496000000
O    -3.355000000     5.431000000     1.117000000
C    -2.399000000     5.209000000     0.116000000
C    -2.706000000     5.497000000    -1.230000000
H    -3.653000000     5.982000000    -1.452000000
C    -1.796000000     5.313000000    -2.223000000
O    -2.204000000     5.596000000    -3.526000000
C    -1.692000000     5.071000000    -4.696000000
C    -1.783000000     3.692000000    -4.970000000
H    -2.245000000     3.105000000    -4.181000000
C    -1.313000000     5.999000000    -5.701000000
H    -1.312000000     7.063000000    -5.480000000
C    -0.809000000     5.458000000    -6.908000000
H    -0.426000000     6.116000000    -7.683000000
C    -0.843000000     4.085000000    -7.216000000
H    -0.394000000     3.645000000    -8.103000000
C    -1.413000000     3.238000000    -6.217000000
O    -1.681000000     1.999000000    -6.537000000
C    -1.169000000     0.900000000    -5.833000000
C    -1.917000000    -0.249000000    -6.021000000
H    -2.939000000    -0.215000000    -6.390000000
C    -1.410000000    -1.434000000    -5.472000000
O    -2.041000000    -2.660000000    -5.874000000
C    -1.759000000    -3.850000000    -5.204000000
C    -0.908000000    -4.796000000    -5.737000000
H    -0.324000000    -4.470000000    -6.594000000
C    -0.612000000    -6.002000000    -5.064000000
H     0.151000000    -6.690000000    -5.419000000
C    -1.338000000    -6.224000000    -3.914000000
H    -1.217000000    -7.167000000    -3.387000000
C    -2.357000000    -5.340000000    -3.461000000
C    -2.567000000    -4.162000000    -4.121000000
H    -3.414000000    -3.524000000    -3.887000000
C    -2.241000000    -1.948000000    -0.926000000
H    -2.717000000    -2.544000000    -1.701000000
C    -0.937000000    -1.567000000    -1.237000000
H    -0.332000000    -1.990000000    -2.034000000
C    -0.400000000    -0.596000000    -0.370000000
H     0.666000000    -0.244000000    -0.417000000
C    -1.143000000    -0.065000000     0.690000000
H    -0.822000000     0.787000000     1.284000000
C    -2.461000000    -0.490000000     0.900000000
H    -2.971000000     0.088000000     1.666000000
C    -3.046000000    -1.423000000     0.086000000
C    -4.493000000    -1.852000000     0.284000000
O    -5.213000000    -1.439000000     1.225000000
O    -4.994000000    -2.496000000    -0.627000000
O    -6.486000000    -4.502000000     0.587000000
H    -6.005000000    -3.860000000     0.064000000
H    -6.560000000    -4.099000000     1.451000000
O    -2.634000000     0.600000000    -2.331000000
H    -2.553000000     0.734000000    -1.387000000
H    -2.133000000    -0.197000000    -2.504000000
O    -7.937000000    -1.941000000    -0.387000000
H    -7.794000000    -2.607000000    -1.060000000
H    -7.058000000    -1.717000000    -0.082000000
O    -6.355000000    -4.474000000    -2.895000000
H    -5.989000000    -4.336000000    -2.022000000
H    -5.845000000    -5.199000000    -3.257000000
O    -6.844000000    -2.261000000     3.043000000
H    -6.360000000    -2.341000000     3.865000000
H    -6.202000000    -1.923000000     2.419000000
O    -8.509000000     0.737000000     0.751000000
H    -7.886000000     1.167000000     0.164000000
H    -8.403000000    -0.196000000     0.569000000
O   -10.142000000    -1.550000000     1.391000000
H    -9.327000000    -1.642000000     0.898000000
H    -9.970000000    -1.990000000     2.223000000
O    -7.815000000     2.259000000    -3.533000000
H    -7.945000000     2.921000000    -4.212000000
H    -6.957000000     1.881000000    -3.728000000
O    -4.948000000     1.611000000    -3.630000000
H    -4.071000000     1.493000000    -3.266000000
H    -5.367000000     0.756000000    -3.527000000
O    -6.889000000    -7.270000000    -0.254000000
H    -7.073000000    -6.402000000     0.103000000
H    -6.592000000    -7.781000000     0.499000000
O    -6.311000000     0.964000000     2.299000000
H    -5.743000000     0.230000000     2.065000000
H    -7.162000000     0.737000000     1.924000000
O    -5.594000000    -1.051000000    -2.804000000
H    -5.794000000    -1.635000000    -3.534000000
H    -5.488000000    -1.634000000    -2.052000000
O    -6.192000000     3.299000000     0.872000000
H    -5.913000000     2.863000000     0.067000000
H    -5.895000000     2.720000000     1.574000000
O    -9.497000000    -2.831000000     3.707000000
H    -9.743000000    -2.726000000     4.626000000
H    -8.669000000    -2.358000000     3.626000000
O    -6.516000000     1.061000000    -0.967000000
H    -6.095000000     0.252000000    -1.255000000
H    -6.959000000     1.392000000    -1.749000000
O    -9.191000000    -4.043000000    -3.184000000
H    -8.245000000    -4.016000000    -3.327000000
H    -9.375000000    -4.959000000    -2.976000000
O    -7.716000000     1.946000000     4.605000000
H    -7.318000000     1.699000000     3.771000000
H    -7.884000000     1.113000000     5.047000000
O    -8.871000000    -5.665000000     2.962000000
H    -8.948000000    -4.723000000     2.805000000
H    -9.772000000    -5.960000000     3.092000000
O    -5.986000000    -3.027000000    -5.395000000
H    -5.301000000    -3.566000000    -5.789000000
H    -6.517000000    -3.644000000    -4.891000000
