215
-1451.81161
C    -1.101000000     1.005000000     5.043000000
H    -0.421000000     1.851000000     4.987000000
C    -0.638000000    -0.231000000     4.742000000
C    -1.552000000    -1.272000000     4.786000000
H    -1.211000000    -2.202000000     4.338000000
C     0.750000000    -0.370000000     4.112000000
O     1.598000000     0.734000000     4.540000000
H     0.543000000    -0.210000000     3.043000000
O     1.400000000    -1.663000000     4.388000000
C     2.133000000    -2.215000000     3.417000000
C     1.516000000    -3.255000000     2.764000000
H     0.511000000    -3.573000000     3.029000000
C     2.074000000    -3.857000000     1.697000000
O     1.418000000    -4.769000000     0.916000000
C     3.313000000    -3.391000000     1.251000000
C     3.949000000    -3.829000000    -0.123000000
H     5.031000000    -3.713000000    -0.035000000
C     3.389000000    -3.053000000    -1.308000000
C     4.032000000    -1.901000000    -1.778000000
H     4.801000000    -1.457000000    -1.151000000
H     3.842000000    -4.912000000    -0.213000000
C     3.955000000    -2.375000000     1.932000000
H     4.926000000    -2.003000000     1.618000000
C     3.382000000    -1.792000000     3.085000000
C     4.063000000    -0.550000000     3.688000000
H     5.134000000    -0.581000000     3.480000000
H     3.988000000    -0.509000000     4.776000000
C     3.474000000     0.741000000     3.043000000
C     4.264000000     1.418000000     2.070000000
H     5.189000000     0.962000000     1.726000000
C     2.359000000     1.370000000     3.565000000
C     1.895000000     2.544000000     3.036000000
H     0.926000000     2.912000000     3.362000000
C     2.584000000     3.134000000     1.966000000
O     1.942000000     4.235000000     1.388000000
C     1.304000000     4.015000000     0.143000000
C    -0.020000000     4.842000000     0.115000000
C    -0.630000000     5.103000000    -1.088000000
H    -0.171000000     4.811000000    -2.029000000
C    -0.660000000     5.190000000     1.284000000
H    -0.141000000     5.040000000     2.227000000
O     2.209000000     4.448000000    -0.889000000
H     1.146000000     2.927000000     0.136000000
C     3.825000000     2.623000000     1.490000000
C     4.556000000     3.340000000     0.343000000
H     5.643000000     3.240000000     0.306000000
H     4.503000000     4.419000000     0.504000000
C     4.075000000     2.890000000    -1.020000000
C     4.493000000     1.691000000    -1.598000000
H     5.329000000     1.160000000    -1.150000000
C     2.886000000     3.455000000    -1.481000000
C     2.195000000     2.909000000    -2.606000000
H     1.282000000     3.388000000    -2.949000000
C     2.767000000     1.863000000    -3.317000000
O     2.033000000     1.285000000    -4.367000000
C     1.209000000     0.069000000    -4.093000000
C    -0.155000000     0.260000000    -4.763000000
C    -0.647000000     1.519000000    -5.148000000
H    -0.057000000     2.430000000    -5.198000000
C    -1.066000000    -0.804000000    -4.756000000
H    -0.736000000    -1.750000000    -4.333000000
O     1.856000000    -1.158000000    -4.614000000
H     1.091000000    -0.018000000    -3.003000000
C     3.887000000     1.201000000    -2.779000000
C     4.414000000    -0.084000000    -3.357000000
H     5.495000000    -0.199000000    -3.253000000
H     4.303000000     0.034000000    -4.437000000
C     3.661000000    -1.342000000    -3.005000000
C     2.505000000    -1.826000000    -3.639000000
C     1.841000000    -2.950000000    -3.194000000
H     1.044000000    -3.377000000    -3.797000000
C     2.161000000    -3.450000000    -1.935000000
O     1.336000000    -4.577000000    -1.387000000
C     0.644000000    -4.305000000    -0.185000000
H     0.441000000    -3.228000000    -0.093000000
C    -0.683000000    -4.939000000    -0.115000000
C    -1.407000000    -5.147000000     1.039000000
H    -0.974000000    -4.892000000     2.003000000
C    -1.340000000    -5.178000000    -1.407000000
H    -0.745000000    -5.039000000    -2.306000000
C    -2.659000000    -5.567000000    -1.434000000
O    -3.373000000    -5.800000000    -2.622000000
C    -3.357000000    -5.785000000    -0.261000000
H    -4.352000000    -6.222000000    -0.242000000
C    -2.703000000    -5.635000000     0.948000000
O    -3.277000000    -6.057000000     2.178000000
C    -3.229000000    -5.389000000     3.432000000
C    -3.749000000    -4.094000000     3.629000000
H    -4.251000000    -3.580000000     2.813000000
C    -2.483000000    -6.056000000     4.434000000
H    -2.024000000    -7.024000000     4.252000000
C    -2.301000000    -5.354000000     5.620000000
H    -1.766000000    -5.844000000     6.429000000
C    -2.882000000    -4.092000000     5.846000000
H    -2.786000000    -3.529000000     6.771000000
C    -3.475000000    -3.426000000     4.818000000
O    -3.823000000    -2.077000000     4.967000000
C    -2.865000000    -1.114000000     5.133000000
C    -3.275000000     0.132000000     5.502000000
H    -4.348000000     0.277000000     5.597000000
C    -2.402000000     1.243000000     5.405000000
O    -2.796000000     2.472000000     5.877000000
C    -2.550000000     3.740000000     5.373000000
C    -2.858000000     4.251000000     4.058000000
H    -3.563000000     3.722000000     3.422000000
C    -1.735000000     4.572000000     6.193000000
H    -1.434000000     4.157000000     7.151000000
C    -1.136000000     5.760000000     5.729000000
H    -0.354000000     6.180000000     6.356000000
C    -1.451000000     6.229000000     4.438000000
H    -1.035000000     7.162000000     4.065000000
C    -2.361000000     5.520000000     3.623000000
O    -2.689000000     5.942000000     2.358000000
C    -1.961000000     5.619000000     1.206000000
C    -2.620000000     5.771000000    -0.006000000
H    -3.672000000     6.043000000     0.012000000
C    -1.921000000     5.581000000    -1.170000000
O    -2.690000000     5.692000000    -2.325000000
C    -2.180000000     5.473000000    -3.541000000
C    -2.556000000     4.294000000    -4.109000000
H    -3.084000000     3.529000000    -3.545000000
C    -1.461000000     6.371000000    -4.246000000
H    -1.076000000     7.226000000    -3.696000000
C    -1.052000000     6.057000000    -5.505000000
H    -0.377000000     6.713000000    -6.050000000
C    -1.454000000     4.909000000    -6.160000000
H    -1.097000000     4.633000000    -7.149000000
C    -2.194000000     3.991000000    -5.416000000
O    -2.594000000     2.801000000    -5.965000000
C    -1.992000000     1.636000000    -5.664000000
C    -2.792000000     0.504000000    -5.702000000
H    -3.808000000     0.539000000    -6.089000000
C    -2.349000000    -0.711000000    -5.252000000
O    -3.110000000    -1.883000000    -5.234000000
C    -2.749000000    -3.179000000    -5.077000000
C    -1.856000000    -3.828000000    -5.875000000
H    -1.338000000    -3.273000000    -6.652000000
C    -1.539000000    -5.202000000    -5.672000000
H    -0.846000000    -5.722000000    -6.329000000
C    -2.085000000    -5.866000000    -4.584000000
H    -1.759000000    -6.882000000    -4.375000000
C    -2.995000000    -5.193000000    -3.751000000
C    -3.387000000    -3.882000000    -3.992000000
H    -4.240000000    -3.622000000    -3.369000000
C    -2.956000000    -1.300000000     0.576000000
H    -3.438000000    -2.272000000     0.515000000
C    -1.686000000    -1.036000000     0.008000000
H    -1.187000000    -1.751000000    -0.642000000
C    -1.070000000     0.148000000     0.304000000
H    -0.129000000     0.349000000    -0.052000000
C    -1.837000000     1.198000000     0.861000000
H    -1.495000000     2.229000000     0.853000000
C    -3.108000000     0.921000000     1.382000000
H    -3.649000000     1.746000000     1.838000000
C    -3.636000000    -0.308000000     1.303000000
C    -5.017000000    -0.596000000     1.897000000
O    -5.550000000     0.305000000     2.495000000
O    -5.491000000    -1.728000000     1.772000000
O    -3.061000000     1.622000000    -2.115000000
H    -3.922000000     1.461000000    -1.729000000
H    -2.448000000     1.513000000    -1.388000000
O    -8.872000000     0.552000000     4.369000000
H    -9.417000000    -0.176000000     4.070000000
H    -8.397000000     0.202000000     5.122000000
O    -8.196000000    -1.995000000     1.121000000
H    -7.274000000    -1.812000000     1.299000000
H    -8.642000000    -1.164000000     1.287000000
O    -6.892000000    -2.870000000     7.100000000
H    -6.305000000    -3.465000000     7.566000000
H    -6.477000000    -2.744000000     6.246000000
O    -6.480000000     3.392000000     0.645000000
H    -6.911000000     4.245000000     0.608000000
H    -6.223000000     3.292000000     1.562000000
O    -8.399000000     0.855000000    -2.643000000
H    -9.225000000     1.248000000    -2.360000000
H    -8.420000000    -0.032000000    -2.282000000
O    -9.857000000     1.219000000    -0.281000000
H    -9.095000000     1.161000000     0.295000000
H   -10.589000000     0.919000000     0.259000000
O    -8.185000000    -4.836000000    -1.181000000
H    -7.404000000    -4.294000000    -1.071000000
H    -8.045000000    -5.580000000    -0.595000000
O    -9.200000000    -4.061000000     4.127000000
H    -8.381000000    -3.572000000     4.045000000
H    -9.466000000    -4.236000000     3.224000000
O    -6.648000000    -2.859000000     4.240000000
H    -5.845000000    -3.292000000     4.530000000
H    -6.346000000    -2.157000000     3.663000000
O    -5.541000000     1.441000000    -1.329000000
H    -6.298000000     1.636000000    -1.882000000
H    -5.761000000     1.821000000    -0.479000000
O    -6.585000000    -5.572000000     3.068000000
H    -7.536000000    -5.640000000     2.980000000
H    -6.255000000    -5.670000000     2.174000000
O    -4.986000000    -1.302000000    -1.996000000
H    -4.474000000    -1.213000000    -1.193000000
H    -5.389000000    -0.443000000    -2.120000000
O    -8.090000000     0.785000000     1.834000000
H    -7.135000000     0.836000000     1.785000000
H    -8.269000000     0.493000000     2.728000000
O   -10.127000000     3.126000000     3.534000000
H    -9.428000000     2.472000000     3.566000000
H    -9.982000000     3.591000000     2.710000000
O    -8.053000000    -2.046000000    -1.639000000
H    -8.206000000    -1.955000000    -0.699000000
H    -8.866000000    -2.420000000    -1.979000000
O    -9.658000000    -4.354000000     1.671000000
H   -10.059000000    -4.709000000     0.877000000
H    -8.965000000    -3.776000000     1.352000000
O    -6.473000000     2.388000000     3.967000000
H    -5.874000000     1.869000000     3.432000000
H    -7.150000000     1.769000000     4.239000000
O    -6.004000000    -3.516000000    -0.041000000
H    -5.897000000    -2.929000000     0.708000000
H    -6.035000000    -2.933000000    -0.800000000
