215
-1432.61740
C    -1.819000000     0.080000000     5.060000000
H    -1.273000000     0.881000000     5.553000000
C    -1.130000000    -0.838000000     4.223000000
C    -1.852000000    -1.864000000     3.539000000
H    -1.371000000    -2.572000000     2.869000000
C     0.349000000    -0.718000000     4.036000000
O     0.916000000     0.278000000     4.837000000
H     0.449000000    -0.464000000     2.971000000
O     1.010000000    -1.979000000     4.289000000
C     1.998000000    -2.396000000     3.397000000
C     1.659000000    -3.470000000     2.549000000
H     0.700000000    -3.981000000     2.581000000
C     2.516000000    -3.846000000     1.517000000
O     2.107000000    -4.765000000     0.604000000
C     3.705000000    -3.155000000     1.375000000
C     4.588000000    -3.308000000     0.130000000
H     5.647000000    -3.089000000     0.283000000
C     4.087000000    -2.495000000    -1.049000000
C     4.538000000    -1.137000000    -1.176000000
H     5.215000000    -0.668000000    -0.467000000
H     4.633000000    -4.381000000    -0.068000000
C     4.060000000    -2.094000000     2.241000000
H     5.002000000    -1.556000000     2.171000000
C     3.221000000    -1.714000000     3.302000000
C     3.559000000    -0.564000000     4.200000000
H     4.634000000    -0.372000000     4.206000000
H     3.254000000    -0.785000000     5.225000000
C     2.956000000     0.739000000     3.705000000
C     3.757000000     1.698000000     2.969000000
H     4.797000000     1.524000000     2.704000000
C     1.666000000     1.127000000     4.030000000
C     1.198000000     2.381000000     3.666000000
H     0.235000000     2.817000000     3.917000000
C     1.922000000     3.211000000     2.832000000
O     1.362000000     4.361000000     2.375000000
C     0.751000000     4.200000000     1.088000000
C    -0.718000000     4.716000000     0.955000000
C    -1.203000000     5.163000000    -0.244000000
H    -0.503000000     5.287000000    -1.066000000
C    -1.561000000     4.586000000     2.028000000
H    -1.252000000     4.180000000     2.988000000
O     1.589000000     4.793000000     0.090000000
H     0.596000000     3.114000000     1.005000000
C     3.193000000     2.877000000     2.439000000
C     4.044000000     3.715000000     1.532000000
H     5.092000000     3.431000000     1.650000000
H     3.807000000     4.771000000     1.676000000
C     3.575000000     3.323000000     0.137000000
C     4.314000000     2.291000000    -0.496000000
H     5.108000000     1.781000000     0.044000000
C     2.424000000     3.839000000    -0.469000000
C     2.113000000     3.492000000    -1.765000000
H     1.337000000     4.061000000    -2.269000000
C     2.842000000     2.504000000    -2.397000000
O     2.354000000     2.123000000    -3.691000000
C     1.681000000     0.818000000    -3.687000000
C     0.351000000     0.756000000    -4.337000000
C    -0.383000000     1.976000000    -4.456000000
H     0.062000000     2.843000000    -3.975000000
C    -0.354000000    -0.368000000    -4.792000000
H     0.093000000    -1.354000000    -4.692000000
O     2.526000000    -0.275000000    -4.144000000
H     1.397000000     0.514000000    -2.669000000
C     3.983000000     1.953000000    -1.795000000
C     4.713000000     0.832000000    -2.583000000
H     5.771000000     0.907000000    -2.321000000
H     4.677000000     0.971000000    -3.666000000
C     4.101000000    -0.503000000    -2.343000000
C     3.176000000    -1.090000000    -3.218000000
C     2.754000000    -2.360000000    -3.069000000
H     2.015000000    -2.764000000    -3.756000000
C     3.180000000    -3.048000000    -1.937000000
O     2.596000000    -4.266000000    -1.677000000
C     1.549000000    -4.188000000    -0.630000000
H     1.265000000    -3.153000000    -0.391000000
C     0.292000000    -5.022000000    -1.103000000
C    -0.580000000    -5.588000000    -0.217000000
H    -0.434000000    -5.445000000     0.851000000
C     0.085000000    -5.217000000    -2.474000000
H     0.814000000    -4.802000000    -3.165000000
C    -1.111000000    -5.764000000    -2.913000000
O    -1.376000000    -5.880000000    -4.258000000
C    -2.049000000    -6.136000000    -2.036000000
H    -2.930000000    -6.624000000    -2.448000000
C    -1.811000000    -6.119000000    -0.642000000
O    -2.774000000    -6.583000000     0.199000000
C    -2.859000000    -6.024000000     1.439000000
C    -3.247000000    -4.710000000     1.543000000
H    -3.287000000    -4.012000000     0.711000000
C    -2.909000000    -6.913000000     2.511000000
H    -2.689000000    -7.958000000     2.310000000
C    -3.188000000    -6.352000000     3.772000000
H    -3.271000000    -6.926000000     4.692000000
C    -3.462000000    -5.001000000     3.929000000
H    -3.566000000    -4.567000000     4.921000000
C    -3.486000000    -4.157000000     2.812000000
O    -3.898000000    -2.814000000     2.966000000
C    -3.222000000    -1.917000000     3.675000000
C    -3.962000000    -0.940000000     4.368000000
H    -5.047000000    -0.929000000     4.306000000
C    -3.205000000     0.024000000     5.106000000
O    -3.925000000     0.961000000     5.809000000
C    -3.668000000     2.316000000     5.676000000
C    -3.732000000     2.875000000     4.423000000
H    -4.035000000     2.226000000     3.606000000
C    -3.437000000     3.130000000     6.827000000
H    -3.511000000     2.633000000     7.791000000
C    -3.343000000     4.504000000     6.665000000
H    -3.098000000     5.145000000     7.508000000
C    -3.385000000     5.092000000     5.374000000
H    -3.255000000     6.168000000     5.292000000
C    -3.612000000     4.247000000     4.254000000
O    -3.767000000     4.782000000     2.998000000
C    -2.893000000     4.890000000     1.979000000
C    -3.349000000     5.456000000     0.793000000
H    -4.381000000     5.646000000     0.509000000
C    -2.505000000     5.568000000    -0.293000000
O    -3.054000000     6.176000000    -1.408000000
C    -2.514000000     5.878000000    -2.693000000
C    -2.654000000     4.666000000    -3.336000000
H    -3.445000000     4.024000000    -2.957000000
C    -1.578000000     6.754000000    -3.320000000
H    -1.547000000     7.704000000    -2.793000000
C    -1.131000000     6.667000000    -4.593000000
H    -0.539000000     7.466000000    -5.031000000
C    -1.317000000     5.394000000    -5.235000000
H    -0.915000000     5.177000000    -6.221000000
C    -2.072000000     4.413000000    -4.605000000
O    -2.394000000     3.222000000    -5.270000000
C    -1.621000000     2.119000000    -5.108000000
C    -2.114000000     1.007000000    -5.631000000
H    -3.076000000     1.103000000    -6.127000000
C    -1.596000000    -0.266000000    -5.437000000
O    -2.299000000    -1.380000000    -5.825000000
C    -1.787000000    -2.651000000    -6.022000000
C    -0.816000000    -2.843000000    -6.963000000
H    -0.641000000    -2.034000000    -7.667000000
C     0.028000000    -3.920000000    -6.904000000
H     0.800000000    -4.027000000    -7.661000000
C    -0.270000000    -4.988000000    -6.121000000
H     0.256000000    -5.938000000    -6.163000000
C    -1.238000000    -4.879000000    -5.172000000
C    -2.038000000    -3.752000000    -5.136000000
H    -2.735000000    -3.641000000    -4.309000000
C    -2.260000000    -1.853000000    -0.925000000
H    -2.604000000    -2.609000000    -1.626000000
C    -0.929000000    -1.612000000    -0.829000000
H    -0.311000000    -2.102000000    -1.577000000
C    -0.340000000    -0.684000000     0.048000000
H     0.695000000    -0.472000000    -0.114000000
C    -1.287000000     0.016000000     0.865000000
H    -0.900000000     0.881000000     1.398000000
C    -2.634000000    -0.292000000     0.864000000
H    -3.317000000     0.343000000     1.421000000
C    -3.165000000    -1.258000000    -0.024000000
C    -4.662000000    -1.564000000    -0.160000000
O    -5.409000000    -0.684000000     0.200000000
O    -5.098000000    -2.432000000    -0.866000000
O    -9.463000000    -0.789000000    -0.154000000
H   -10.223000000    -0.927000000    -0.719000000
H    -9.811000000    -0.325000000     0.607000000
O    -7.617000000    -2.862000000    -0.964000000
H    -6.731000000    -2.556000000    -0.770000000
H    -8.189000000    -2.221000000    -0.541000000
O    -5.586000000    -6.635000000    -3.694000000
H    -4.922000000    -7.324000000    -3.715000000
H    -5.376000000    -6.123000000    -2.913000000
O    -3.353000000     0.535000000    -2.874000000
H    -2.587000000     0.081000000    -2.521000000
H    -3.440000000     1.316000000    -2.327000000
O    -7.426000000    -0.026000000    -1.657000000
H    -8.052000000    -0.258000000    -0.972000000
H    -6.640000000    -0.530000000    -1.445000000
O    -7.494000000     4.193000000    -0.218000000
H    -7.290000000     4.159000000    -1.152000000
H    -7.089000000     3.405000000     0.144000000
O    -4.248000000     1.867000000    -0.715000000
H    -4.686000000     1.025000000    -0.586000000
H    -4.524000000     2.397000000     0.032000000
O    -8.090000000    -2.489000000    -4.000000000
H    -7.929000000    -2.787000000    -3.104000000
H    -9.032000000    -2.608000000    -4.126000000
O    -6.096000000    -3.345000000    -5.525000000
H    -6.666000000    -3.143000000    -4.783000000
H    -5.222000000    -3.084000000    -5.235000000
O    -7.182000000    -2.570000000     2.957000000
H    -6.304000000    -2.581000000     2.574000000
H    -7.142000000    -1.886000000     3.626000000
O    -5.970000000     1.138000000    -3.714000000
H    -6.481000000     0.982000000    -2.920000000
H    -5.079000000     0.875000000    -3.481000000
O    -4.746000000    -1.760000000    -3.777000000
H    -4.534000000    -0.828000000    -3.720000000
H    -4.915000000    -2.023000000    -2.873000000
O    -8.787000000    -5.003000000    -2.119000000
H    -8.059000000    -5.619000000    -2.202000000
H    -8.446000000    -4.302000000    -1.563000000
O    -7.415000000     0.432000000     4.832000000
H    -6.992000000     0.411000000     3.974000000
H    -7.557000000     1.362000000     5.007000000
O    -5.319000000     3.122000000     1.347000000
H    -4.734000000     3.770000000     1.739000000
H    -6.091000000     3.124000000     1.913000000
O    -6.107000000    -6.282000000     1.306000000
H    -6.477000000    -7.109000000     1.613000000
H    -5.323000000    -6.157000000     1.842000000
O    -5.192000000    -5.193000000    -1.280000000
H    -5.547000000    -5.455000000    -0.431000000
H    -5.154000000    -4.237000000    -1.239000000
O    -6.648000000     0.272000000     2.445000000
H    -7.010000000    -0.496000000     2.003000000
H    -6.291000000     0.810000000     1.738000000
O    -9.458000000    -3.701000000     2.232000000
H    -8.609000000    -3.398000000     2.555000000
H    -9.358000000    -4.650000000     2.153000000
