215
-1460.06451
C    -1.757000000     1.240000000     4.693000000
H    -1.271000000     2.205000000     4.808000000
C    -0.949000000     0.073000000     4.460000000
C    -1.612000000    -1.161000000     4.216000000
H    -1.138000000    -2.105000000     3.960000000
C     0.549000000     0.161000000     4.124000000
O     1.183000000     1.414000000     4.707000000
H     0.645000000     0.264000000     3.033000000
O     1.265000000    -0.964000000     4.570000000
C     2.102000000    -1.601000000     3.694000000
C     1.657000000    -2.736000000     3.066000000
H     0.647000000    -3.045000000     3.319000000
C     2.462000000    -3.348000000     2.037000000
O     1.974000000    -4.460000000     1.326000000
C     3.647000000    -2.705000000     1.571000000
C     4.497000000    -3.265000000     0.364000000
H     5.530000000    -2.941000000     0.508000000
C     3.906000000    -2.831000000    -0.895000000
C     4.512000000    -1.649000000    -1.393000000
H     5.356000000    -1.212000000    -0.864000000
H     4.402000000    -4.352000000     0.340000000
C     4.052000000    -1.593000000     2.309000000
H     4.947000000    -1.095000000     1.945000000
C     3.340000000    -1.024000000     3.337000000
C     3.799000000     0.239000000     4.046000000
H     4.876000000     0.285000000     4.221000000
H     3.509000000     0.040000000     5.080000000
C     3.251000000     1.479000000     3.422000000
C     4.032000000     2.097000000     2.427000000
H     4.977000000     1.617000000     2.185000000
C     2.043000000     2.030000000     3.818000000
C     1.550000000     3.176000000     3.231000000
H     0.542000000     3.474000000     3.506000000
C     2.213000000     3.714000000     2.149000000
O     1.566000000     4.634000000     1.449000000
C     0.890000000     4.106000000     0.265000000
C    -0.571000000     4.516000000     0.118000000
C    -1.157000000     4.468000000    -1.172000000
H    -0.650000000     3.972000000    -1.995000000
C    -1.328000000     4.962000000     1.189000000
H    -0.897000000     4.762000000     2.167000000
O     1.704000000     4.422000000    -0.919000000
H     0.976000000     3.010000000     0.231000000
C     3.504000000     3.220000000     1.781000000
C     4.225000000     3.756000000     0.541000000
H     5.290000000     3.576000000     0.700000000
H     4.096000000     4.839000000     0.487000000
C     3.700000000     3.060000000    -0.749000000
C     4.368000000     1.953000000    -1.252000000
H     5.320000000     1.661000000    -0.816000000
C     2.529000000     3.454000000    -1.416000000
C     2.082000000     2.817000000    -2.584000000
H     1.200000000     3.169000000    -3.111000000
C     2.882000000     1.787000000    -3.106000000
O     2.323000000     1.177000000    -4.173000000
C     1.567000000    -0.043000000    -4.010000000
C     0.186000000     0.101000000    -4.634000000
C    -0.280000000     1.249000000    -5.321000000
H     0.311000000     2.154000000    -5.436000000
C    -0.670000000    -1.000000000    -4.518000000
H    -0.402000000    -1.963000000    -4.093000000
O     2.440000000    -1.158000000    -4.373000000
H     1.336000000    -0.112000000    -2.937000000
C     3.963000000     1.331000000    -2.436000000
C     4.737000000     0.235000000    -3.119000000
H     5.751000000     0.279000000    -2.715000000
H     4.710000000     0.408000000    -4.197000000
C     4.153000000    -1.096000000    -2.652000000
C     3.044000000    -1.665000000    -3.254000000
C     2.451000000    -2.878000000    -2.796000000
H     1.749000000    -3.382000000    -3.455000000
C     2.855000000    -3.488000000    -1.588000000
O     2.218000000    -4.524000000    -1.091000000
C     1.291000000    -4.356000000     0.041000000
H     0.789000000    -3.382000000    -0.059000000
C     0.090000000    -5.245000000    -0.043000000
C    -0.682000000    -5.567000000     1.005000000
H    -0.351000000    -5.233000000     1.985000000
C    -0.463000000    -5.426000000    -1.310000000
H     0.006000000    -4.931000000    -2.156000000
C    -1.721000000    -6.040000000    -1.454000000
O    -2.258000000    -6.364000000    -2.695000000
C    -2.403000000    -6.550000000    -0.346000000
H    -3.366000000    -7.028000000    -0.511000000
C    -1.946000000    -6.185000000     0.933000000
O    -2.602000000    -6.558000000     2.084000000
C    -2.614000000    -5.761000000     3.231000000
C    -3.232000000    -4.511000000     3.225000000
H    -3.730000000    -4.152000000     2.328000000
C    -1.931000000    -6.192000000     4.373000000
H    -1.445000000    -7.164000000     4.372000000
C    -1.927000000    -5.366000000     5.512000000
H    -1.492000000    -5.686000000     6.456000000
C    -2.486000000    -4.058000000     5.481000000
H    -2.343000000    -3.309000000     6.257000000
C    -3.179000000    -3.668000000     4.325000000
O    -3.790000000    -2.416000000     4.218000000
C    -3.021000000    -1.236000000     4.324000000
C    -3.809000000    -0.144000000     4.713000000
H    -4.894000000    -0.076000000     4.703000000
C    -3.136000000     1.069000000     4.770000000
O    -3.947000000     2.172000000     5.129000000
C    -3.670000000     3.446000000     4.839000000
C    -3.800000000     3.971000000     3.542000000
H    -4.176000000     3.363000000     2.724000000
C    -3.116000000     4.209000000     5.863000000
H    -3.017000000     3.827000000     6.876000000
C    -2.728000000     5.555000000     5.630000000
H    -2.289000000     6.039000000     6.499000000
C    -2.832000000     6.035000000     4.332000000
H    -2.428000000     7.025000000     4.137000000
C    -3.287000000     5.241000000     3.325000000
O    -3.443000000     5.801000000     2.064000000
C    -2.633000000     5.499000000     1.018000000
C    -3.187000000     5.460000000    -0.239000000
H    -4.243000000     5.690000000    -0.357000000
C    -2.503000000     4.960000000    -1.307000000
O    -3.141000000     5.008000000    -2.487000000
C    -2.570000000     4.863000000    -3.749000000
C    -2.440000000     3.642000000    -4.421000000
H    -2.683000000     2.716000000    -3.905000000
C    -2.280000000     6.032000000    -4.422000000
H    -2.533000000     7.020000000    -4.047000000
C    -1.887000000     5.967000000    -5.780000000
H    -1.693000000     6.908000000    -6.287000000
C    -1.858000000     4.746000000    -6.426000000
H    -1.457000000     4.735000000    -7.436000000
C    -2.076000000     3.562000000    -5.764000000
O    -2.115000000     2.309000000    -6.408000000
C    -1.591000000     1.269000000    -5.832000000
C    -2.393000000     0.165000000    -5.742000000
H    -3.377000000     0.086000000    -6.197000000
C    -1.907000000    -1.028000000    -5.118000000
O    -2.796000000    -2.108000000    -4.878000000
C    -2.374000000    -3.442000000    -4.870000000
C    -1.418000000    -3.867000000    -5.859000000
H    -1.058000000    -3.202000000    -6.640000000
C    -0.851000000    -5.140000000    -5.699000000
H    -0.051000000    -5.490000000    -6.347000000
C    -1.266000000    -6.003000000    -4.668000000
H    -0.806000000    -6.970000000    -4.482000000
C    -2.056000000    -5.485000000    -3.687000000
C    -2.737000000    -4.262000000    -3.830000000
H    -3.539000000    -4.039000000    -3.130000000
C    -2.068000000    -1.539000000    -0.577000000
H    -2.849000000    -2.146000000    -1.027000000
C    -0.747000000    -1.580000000    -1.013000000
H    -0.393000000    -2.416000000    -1.612000000
C     0.254000000    -0.818000000    -0.451000000
H     1.286000000    -0.908000000    -0.526000000
C    -0.116000000     0.118000000     0.554000000
H     0.649000000     0.675000000     1.088000000
C    -1.404000000     0.290000000     0.902000000
H    -1.606000000     1.046000000     1.657000000
C    -2.455000000    -0.530000000     0.371000000
C    -3.918000000    -0.381000000     0.667000000
O    -4.421000000     0.677000000     1.048000000
O    -4.691000000    -1.262000000     0.363000000
O    -8.279000000     2.622000000     4.208000000
H    -8.597000000     3.290000000     3.601000000
H    -7.685000000     2.085000000     3.684000000
O    -8.527000000    -1.096000000    -2.480000000
H    -8.679000000    -1.456000000    -1.606000000
H    -7.613000000    -0.814000000    -2.467000000
O    -1.860000000     1.012000000    -2.176000000
H    -1.700000000     0.463000000    -1.408000000
H    -1.115000000     0.841000000    -2.752000000
O    -6.492000000     0.389000000    -1.086000000
H    -5.842000000     0.167000000    -0.419000000
H    -6.099000000     1.114000000    -1.572000000
O    -5.417000000     3.214000000     0.313000000
H    -4.895000000     2.422000000     0.439000000
H    -6.077000000     3.178000000     1.005000000
O    -9.010000000     1.716000000    -1.198000000
H    -8.364000000     1.032000000    -1.371000000
H    -8.575000000     2.528000000    -1.460000000
O    -6.932000000    -6.530000000     0.515000000
H    -6.567000000    -5.649000000     0.435000000
H    -6.304000000    -7.000000000     1.064000000
O    -6.865000000    -1.270000000     1.906000000
H    -6.147000000    -1.065000000     1.307000000
H    -7.062000000    -0.439000000     2.338000000
O    -4.352000000     2.194000000    -2.245000000
H    -4.154000000     2.846000000    -1.573000000
H    -3.608000000     1.592000000    -2.223000000
O    -6.830000000    -3.301000000     4.190000000
H    -7.524000000    -2.920000000     3.651000000
H    -6.033000000    -3.182000000     3.674000000
O    -5.497000000    -2.801000000    -1.740000000
H    -5.177000000    -2.082000000    -1.194000000
H    -5.892000000    -3.414000000    -1.120000000
O    -9.528000000    -0.855000000     3.971000000
H    -9.437000000    -0.210000000     3.270000000
H   -10.474000000    -0.956000000     4.081000000
O    -7.241000000     3.825000000    -1.724000000
H    -6.469000000     3.568000000    -1.221000000
H    -6.901000000     4.041000000    -2.592000000
O    -6.309000000    -3.125000000    -4.781000000
H    -5.858000000    -2.959000000    -3.953000000
H    -6.554000000    -4.049000000    -4.739000000
O    -9.915000000     1.378000000     1.420000000
H    -9.363000000     1.866000000     0.808000000
H   -10.266000000     2.046000000     2.009000000
O    -5.472000000     3.912000000    -3.975000000
H    -4.863000000     4.651000000    -3.968000000
H    -5.055000000     3.253000000    -3.420000000
O    -9.189000000    -1.069000000     0.375000000
H    -8.564000000    -1.360000000     1.039000000
H    -9.387000000    -0.163000000     0.615000000
O    -5.884000000     1.392000000     3.000000000
H    -5.329000000     0.967000000     2.346000000
H    -5.286000000     1.611000000     3.715000000
O    -6.217000000    -3.677000000     0.664000000
H    -6.903000000    -3.030000000     0.826000000
H    -5.399000000    -3.196000000     0.794000000
