215
-1444.67411
C    -1.140000000     1.566000000     4.676000000
H    -0.578000000     2.445000000     4.372000000
C    -0.547000000     0.312000000     4.667000000
C    -1.323000000    -0.815000000     5.009000000
H    -0.882000000    -1.808000000     5.044000000
C     0.937000000     0.188000000     4.276000000
O     1.763000000     1.371000000     4.494000000
H     0.993000000     0.165000000     3.177000000
O     1.524000000    -1.024000000     4.775000000
C     2.181000000    -1.743000000     3.836000000
C     1.569000000    -2.868000000     3.301000000
H     0.589000000    -3.143000000     3.683000000
C     2.185000000    -3.610000000     2.313000000
O     1.483000000    -4.706000000     1.766000000
C     3.400000000    -3.151000000     1.800000000
C     4.008000000    -3.921000000     0.642000000
H     5.097000000    -3.888000000     0.712000000
C     3.485000000    -3.462000000    -0.753000000
C     4.095000000    -2.429000000    -1.391000000
H     4.913000000    -1.907000000    -0.901000000
H     3.806000000    -4.994000000     0.644000000
C     4.053000000    -2.012000000     2.270000000
H     4.945000000    -1.671000000     1.751000000
C     3.444000000    -1.310000000     3.323000000
C     4.195000000    -0.065000000     3.763000000
H     5.222000000    -0.110000000     3.396000000
H     4.289000000    -0.002000000     4.849000000
C     3.742000000     1.167000000     3.023000000
C     4.476000000     1.666000000     1.953000000
H     5.411000000     1.190000000     1.669000000
C     2.577000000     1.819000000     3.411000000
C     1.998000000     2.795000000     2.606000000
H     1.075000000     3.332000000     2.812000000
C     2.777000000     3.286000000     1.504000000
O     2.245000000     4.238000000     0.708000000
C     1.452000000     3.961000000    -0.509000000
C     0.133000000     4.798000000    -0.661000000
C    -0.387000000     5.028000000    -1.953000000
H     0.106000000     4.644000000    -2.842000000
C    -0.645000000     5.158000000     0.501000000
H    -0.359000000     4.810000000     1.490000000
O     2.378000000     4.272000000    -1.548000000
H     1.268000000     2.877000000    -0.538000000
C     4.039000000     2.665000000     1.171000000
C     4.791000000     3.146000000    -0.086000000
H     5.831000000     2.822000000    -0.011000000
H     4.709000000     4.235000000    -0.071000000
C     4.126000000     2.605000000    -1.371000000
C     4.611000000     1.338000000    -1.842000000
H     5.477000000     0.939000000    -1.319000000
C     2.974000000     3.130000000    -1.985000000
C     2.371000000     2.492000000    -3.053000000
H     1.557000000     2.932000000    -3.623000000
C     2.909000000     1.252000000    -3.454000000
O     2.153000000     0.620000000    -4.426000000
C     1.194000000    -0.324000000    -3.950000000
C    -0.188000000    -0.211000000    -4.541000000
C    -0.615000000     0.989000000    -5.231000000
H     0.045000000     1.810000000    -5.502000000
C    -1.142000000    -1.244000000    -4.445000000
H    -0.829000000    -2.134000000    -3.905000000
O     1.726000000    -1.681000000    -4.140000000
H     1.083000000    -0.119000000    -2.875000000
C     3.951000000     0.609000000    -2.863000000
C     4.394000000    -0.817000000    -3.281000000
H     5.430000000    -0.995000000    -2.986000000
H     4.452000000    -0.968000000    -4.361000000
C     3.595000000    -1.928000000    -2.575000000
C     2.369000000    -2.298000000    -3.068000000
C     1.839000000    -3.477000000    -2.455000000
H     0.888000000    -3.842000000    -2.833000000
C     2.331000000    -4.093000000    -1.315000000
O     1.544000000    -4.987000000    -0.654000000
C     0.716000000    -4.478000000     0.449000000
H     0.595000000    -3.407000000     0.229000000
C    -0.717000000    -5.007000000     0.471000000
C    -1.484000000    -4.947000000     1.656000000
H    -1.132000000    -4.395000000     2.524000000
C    -1.274000000    -5.502000000    -0.696000000
H    -0.738000000    -5.388000000    -1.635000000
C    -2.638000000    -5.844000000    -0.668000000
O    -3.268000000    -6.014000000    -1.816000000
C    -3.378000000    -5.846000000     0.496000000
H    -4.437000000    -6.062000000     0.382000000
C    -2.772000000    -5.503000000     1.692000000
O    -3.576000000    -5.421000000     2.809000000
C    -3.267000000    -4.941000000     4.024000000
C    -3.488000000    -3.548000000     4.229000000
H    -4.030000000    -2.960000000     3.494000000
C    -2.786000000    -5.653000000     5.100000000
H    -2.508000000    -6.700000000     5.009000000
C    -2.585000000    -5.119000000     6.336000000
H    -2.170000000    -5.773000000     7.098000000
C    -2.804000000    -3.726000000     6.612000000
H    -2.613000000    -3.264000000     7.578000000
C    -3.292000000    -2.965000000     5.514000000
O    -3.490000000    -1.663000000     5.759000000
C    -2.663000000    -0.609000000     5.392000000
C    -3.296000000     0.637000000     5.348000000
H    -4.374000000     0.724000000     5.461000000
C    -2.474000000     1.759000000     5.092000000
O    -3.169000000     2.996000000     5.003000000
C    -2.598000000     4.076000000     4.488000000
C    -2.881000000     4.469000000     3.185000000
H    -3.439000000     3.778000000     2.558000000
C    -1.810000000     4.951000000     5.287000000
H    -1.510000000     4.681000000     6.297000000
C    -1.380000000     6.210000000     4.795000000
H    -0.939000000     6.925000000     5.485000000
C    -1.745000000     6.588000000     3.494000000
H    -1.428000000     7.555000000     3.112000000
C    -2.463000000     5.707000000     2.711000000
O    -2.654000000     6.039000000     1.419000000
C    -1.847000000     5.810000000     0.375000000
C    -2.329000000     6.053000000    -0.910000000
H    -3.318000000     6.446000000    -1.133000000
C    -1.605000000     5.676000000    -2.057000000
O    -2.274000000     5.801000000    -3.213000000
C    -1.989000000     5.331000000    -4.473000000
C    -2.061000000     3.960000000    -4.735000000
H    -2.219000000     3.289000000    -3.895000000
C    -1.943000000     6.267000000    -5.490000000
H    -1.878000000     7.312000000    -5.198000000
C    -1.796000000     5.791000000    -6.814000000
H    -1.630000000     6.490000000    -7.629000000
C    -1.880000000     4.445000000    -7.128000000
H    -1.722000000     4.157000000    -8.164000000
C    -2.042000000     3.511000000    -6.078000000
O    -2.334000000     2.175000000    -6.344000000
C    -1.909000000     1.044000000    -5.677000000
C    -2.786000000     0.048000000    -5.400000000
H    -3.845000000     0.194000000    -5.597000000
C    -2.495000000    -1.018000000    -4.618000000
O    -3.460000000    -2.039000000    -4.438000000
C    -3.233000000    -3.384000000    -4.366000000
C    -2.451000000    -4.001000000    -5.335000000
H    -2.215000000    -3.587000000    -6.312000000
C    -1.906000000    -5.238000000    -5.087000000
H    -1.327000000    -5.817000000    -5.802000000
C    -2.316000000    -5.990000000    -3.909000000
H    -1.980000000    -7.017000000    -3.794000000
C    -3.052000000    -5.347000000    -2.949000000
C    -3.585000000    -4.070000000    -3.236000000
H    -4.196000000    -3.623000000    -2.457000000
C    -2.741000000    -1.362000000     0.273000000
H    -3.534000000    -2.060000000     0.019000000
C    -1.481000000    -1.526000000    -0.297000000
H    -1.254000000    -2.420000000    -0.872000000
C    -0.440000000    -0.717000000     0.113000000
H     0.589000000    -0.867000000    -0.299000000
C    -0.716000000     0.420000000     0.973000000
H     0.078000000     1.076000000     1.319000000
C    -1.950000000     0.624000000     1.467000000
H    -2.074000000     1.449000000     2.163000000
C    -2.953000000    -0.279000000     1.149000000
C    -4.303000000    -0.063000000     1.676000000
O    -4.705000000     1.022000000     1.901000000
O    -5.012000000    -1.064000000     1.857000000
O    -7.305000000    -1.207000000     6.910000000
H    -6.763000000    -1.079000000     6.132000000
H    -7.668000000    -0.341000000     7.094000000
O    -6.953000000     4.717000000     5.031000000
H    -7.687000000     5.243000000     4.713000000
H    -6.693000000     4.188000000     4.276000000
O    -2.169000000     2.477000000    -1.134000000
H    -3.000000000     2.643000000    -0.688000000
H    -1.659000000     1.965000000    -0.506000000
O    -7.694000000    -0.526000000     1.328000000
H    -6.780000000    -0.629000000     1.594000000
H    -7.990000000     0.259000000     1.788000000
O    -4.570000000     3.031000000     0.128000000
H    -5.066000000     3.790000000     0.435000000
H    -4.671000000     2.381000000     0.823000000
O    -7.434000000     2.114000000    -3.548000000
H    -6.512000000     2.312000000    -3.714000000
H    -7.425000000     1.582000000    -2.752000000
O    -7.055000000    -5.259000000    -1.115000000
H    -6.596000000    -4.649000000    -0.538000000
H    -7.033000000    -6.094000000    -0.647000000
O    -8.602000000    -3.209000000     5.548000000
H    -8.358000000    -2.435000000     6.055000000
H    -8.090000000    -3.141000000     4.743000000
O    -6.147000000    -1.090000000     4.189000000
H    -5.563000000    -1.043000000     3.432000000
H    -6.758000000    -1.796000000     3.976000000
O    -6.677000000     0.819000000    -1.384000000
H    -6.085000000     1.336000000    -0.836000000
H    -7.260000000     0.384000000    -0.762000000
O    -6.823000000    -5.306000000     2.373000000
H    -7.518000000    -4.650000000     2.316000000
H    -6.044000000    -4.860000000     2.040000000
O    -6.268000000    -1.934000000    -1.973000000
H    -5.836000000    -1.080000000    -1.960000000
H    -7.070000000    -1.789000000    -2.477000000
O    -8.497000000     1.332000000     3.042000000
H    -7.667000000     1.656000000     3.390000000
H    -9.143000000     1.557000000     3.712000000
O    -9.926000000     0.334000000     0.070000000
H    -9.385000000    -0.317000000     0.517000000
H   -10.728000000     0.377000000     0.592000000
O    -4.671000000     3.338000000    -2.967000000
H    -3.917000000     3.852000000    -2.676000000
H    -4.607000000     2.520000000    -2.475000000
O    -8.258000000    -3.009000000     2.702000000
H    -9.173000000    -2.940000000     2.974000000
H    -8.074000000    -2.178000000     2.265000000
O    -7.899000000     4.077000000     1.794000000
H    -7.811000000     3.322000000     2.375000000
H    -7.028000000     4.476000000     1.786000000
O    -5.894000000     2.460000000     3.678000000
H    -5.673000000     1.746000000     3.080000000
H    -5.121000000     2.554000000     4.235000000
O    -5.828000000    -3.290000000     0.517000000
H    -5.482000000    -2.656000000     1.145000000
H    -6.176000000    -2.755000000    -0.197000000
