215
-1462.92513
C    -0.862000000     1.665000000     5.266000000
H    -0.255000000     2.564000000     5.195000000
C    -0.344000000     0.397000000     4.875000000
C    -1.191000000    -0.703000000     4.939000000
H    -0.863000000    -1.588000000     4.398000000
C     1.056000000     0.207000000     4.240000000
O     1.914000000     1.231000000     4.658000000
H     0.924000000     0.253000000     3.149000000
O     1.703000000    -1.036000000     4.654000000
C     2.358000000    -1.706000000     3.664000000
C     1.634000000    -2.744000000     3.005000000
H     0.654000000    -3.048000000     3.362000000
C     2.172000000    -3.471000000     1.951000000
O     1.426000000    -4.481000000     1.433000000
C     3.448000000    -3.099000000     1.483000000
C     4.086000000    -3.694000000     0.263000000
H     5.161000000    -3.530000000     0.164000000
C     3.586000000    -3.195000000    -1.086000000
C     4.295000000    -2.222000000    -1.772000000
H     5.238000000    -1.856000000    -1.375000000
H     4.030000000    -4.784000000     0.289000000
C     4.121000000    -2.081000000     2.094000000
H     5.051000000    -1.658000000     1.721000000
C     3.662000000    -1.355000000     3.204000000
C     4.275000000    -0.037000000     3.707000000
H     5.356000000    -0.063000000     3.557000000
H     4.200000000    -0.096000000     4.794000000
C     3.717000000     1.211000000     3.153000000
C     4.352000000     1.634000000     1.971000000
H     5.193000000     1.142000000     1.488000000
C     2.616000000     1.869000000     3.675000000
C     1.951000000     2.872000000     2.883000000
H     1.081000000     3.351000000     3.325000000
C     2.578000000     3.345000000     1.730000000
O     1.890000000     4.351000000     1.119000000
C     1.289000000     4.087000000    -0.148000000
C    -0.056000000     4.812000000    -0.297000000
C    -0.635000000     5.018000000    -1.573000000
H    -0.073000000     4.819000000    -2.482000000
C    -0.838000000     4.915000000     0.821000000
H    -0.436000000     4.538000000     1.758000000
O     2.097000000     4.291000000    -1.311000000
H     0.955000000     3.041000000    -0.222000000
C     3.788000000     2.754000000     1.286000000
C     4.475000000     3.242000000     0.027000000
H     5.561000000     3.139000000     0.072000000
H     4.316000000     4.316000000    -0.087000000
C     3.893000000     2.615000000    -1.233000000
C     4.498000000     1.505000000    -1.864000000
H     5.400000000     1.068000000    -1.444000000
C     2.754000000     3.167000000    -1.867000000
C     2.256000000     2.630000000    -3.046000000
H     1.319000000     2.992000000    -3.462000000
C     2.753000000     1.483000000    -3.633000000
O     1.908000000     0.842000000    -4.553000000
C     1.094000000    -0.225000000    -4.022000000
C    -0.389000000    -0.245000000    -4.585000000
C    -0.815000000     0.861000000    -5.394000000
H    -0.234000000     1.780000000    -5.420000000
C    -1.222000000    -1.332000000    -4.456000000
H    -0.854000000    -2.238000000    -3.980000000
O     1.761000000    -1.462000000    -4.319000000
H     1.173000000    -0.015000000    -2.945000000
C     3.919000000     0.897000000    -3.000000000
C     4.464000000    -0.399000000    -3.521000000
H     5.512000000    -0.549000000    -3.254000000
H     4.286000000    -0.632000000    -4.573000000
C     3.793000000    -1.577000000    -2.855000000
C     2.515000000    -2.004000000    -3.293000000
C     1.820000000    -3.065000000    -2.630000000
H     0.846000000    -3.465000000    -2.900000000
C     2.407000000    -3.723000000    -1.571000000
O     1.616000000    -4.596000000    -0.966000000
C     0.785000000    -4.213000000     0.190000000
H     0.558000000    -3.139000000     0.112000000
C    -0.548000000    -4.818000000     0.230000000
C    -1.347000000    -4.719000000     1.387000000
H    -1.044000000    -4.223000000     2.306000000
C    -1.109000000    -5.464000000    -0.938000000
H    -0.525000000    -5.629000000    -1.841000000
C    -2.457000000    -5.914000000    -0.981000000
O    -3.023000000    -6.346000000    -2.159000000
C    -3.222000000    -5.785000000     0.161000000
H    -4.259000000    -6.106000000     0.216000000
C    -2.639000000    -5.296000000     1.362000000
O    -3.362000000    -5.410000000     2.500000000
C    -2.973000000    -4.797000000     3.696000000
C    -3.382000000    -3.509000000     4.020000000
H    -4.009000000    -2.913000000     3.362000000
C    -2.170000000    -5.502000000     4.624000000
H    -1.982000000    -6.550000000     4.404000000
C    -1.748000000    -4.962000000     5.815000000
H    -1.226000000    -5.586000000     6.536000000
C    -2.133000000    -3.696000000     6.118000000
H    -1.896000000    -3.270000000     7.090000000
C    -2.997000000    -2.969000000     5.261000000
O    -3.405000000    -1.670000000     5.632000000
C    -2.495000000    -0.569000000     5.495000000
C    -2.931000000     0.668000000     5.981000000
H    -3.940000000     0.775000000     6.370000000
C    -2.142000000     1.791000000     5.880000000
O    -2.626000000     3.088000000     6.132000000
C    -2.440000000     4.119000000     5.274000000
C    -2.871000000     4.068000000     3.932000000
H    -3.475000000     3.254000000     3.541000000
C    -1.798000000     5.264000000     5.783000000
H    -1.397000000     5.308000000     6.793000000
C    -1.676000000     6.344000000     4.929000000
H    -1.239000000     7.298000000     5.211000000
C    -1.984000000     6.273000000     3.605000000
H    -1.846000000     7.090000000     2.902000000
C    -2.554000000     5.129000000     3.087000000
O    -3.023000000     5.141000000     1.795000000
C    -2.164000000     5.260000000     0.717000000
C    -2.775000000     5.405000000    -0.504000000
H    -3.819000000     5.692000000    -0.600000000
C    -1.982000000     5.321000000    -1.678000000
O    -2.624000000     5.574000000    -2.875000000
C    -2.183000000     5.093000000    -4.165000000
C    -2.702000000     3.846000000    -4.584000000
H    -3.283000000     3.286000000    -3.855000000
C    -1.492000000     5.848000000    -5.145000000
H    -1.196000000     6.864000000    -4.901000000
C    -1.001000000     5.279000000    -6.321000000
H    -0.328000000     5.873000000    -6.934000000
C    -1.444000000     3.991000000    -6.749000000
H    -1.262000000     3.493000000    -7.698000000
C    -2.286000000     3.325000000    -5.804000000
O    -2.756000000     2.101000000    -6.167000000
C    -2.192000000     0.896000000    -5.701000000
C    -3.055000000    -0.107000000    -5.413000000
H    -4.129000000     0.022000000    -5.527000000
C    -2.584000000    -1.223000000    -4.774000000
O    -3.463000000    -2.116000000    -4.322000000
C    -3.282000000    -3.466000000    -4.435000000
C    -2.896000000    -4.028000000    -5.639000000
H    -2.897000000    -3.468000000    -6.571000000
C    -2.757000000    -5.408000000    -5.690000000
H    -2.560000000    -5.866000000    -6.656000000
C    -2.838000000    -6.171000000    -4.558000000
H    -2.594000000    -7.230000000    -4.536000000
C    -3.119000000    -5.596000000    -3.324000000
C    -3.387000000    -4.224000000    -3.284000000
H    -3.572000000    -3.723000000    -2.337000000
C    -1.919000000    -1.133000000    -1.019000000
H    -2.216000000    -1.977000000    -1.635000000
C    -0.566000000    -0.734000000    -1.003000000
H     0.104000000    -1.185000000    -1.730000000
C    -0.111000000     0.121000000    -0.014000000
H     0.917000000     0.435000000     0.107000000
C    -1.031000000     0.668000000     0.837000000
H    -0.576000000     1.196000000     1.671000000
C    -2.374000000     0.287000000     0.828000000
H    -3.066000000     0.591000000     1.608000000
C    -2.841000000    -0.660000000    -0.064000000
C    -4.185000000    -1.432000000     0.144000000
O    -4.840000000    -1.245000000     1.186000000
O    -4.579000000    -2.218000000    -0.665000000
O    -6.183000000    -6.322000000     2.894000000
H    -5.702000000    -7.131000000     3.063000000
H    -5.528000000    -5.723000000     2.536000000
O    -6.319000000    -6.266000000    -3.375000000
H    -6.966000000    -5.883000000    -3.967000000
H    -6.313000000    -5.682000000    -2.617000000
O    -2.477000000     1.839000000    -2.049000000
H    -2.444000000     0.957000000    -2.421000000
H    -1.931000000     1.788000000    -1.264000000
O    -7.348000000    -1.916000000     1.828000000
H    -6.469000000    -1.580000000     1.652000000
H    -7.892000000    -1.538000000     1.138000000
O    -5.990000000     4.686000000     1.490000000
H    -5.126000000     4.361000000     1.238000000
H    -6.598000000     4.015000000     1.179000000
O    -5.901000000     1.812000000     0.953000000
H    -5.620000000     2.305000000     0.181000000
H    -5.626000000     0.913000000     0.776000000
O    -6.303000000    -4.511000000    -1.314000000
H    -6.158000000    -4.707000000    -0.388000000
H    -5.878000000    -3.664000000    -1.448000000
O    -8.923000000    -5.404000000    -1.391000000
H    -7.967000000    -5.436000000    -1.410000000
H    -9.198000000    -6.248000000    -1.750000000
O    -9.483000000    -3.094000000     3.424000000
H    -8.790000000    -2.799000000     2.834000000
H   -10.054000000    -3.631000000     2.875000000
O    -6.767000000     0.689000000    -1.600000000
H    -6.159000000     1.428000000    -1.619000000
H    -6.334000000     0.010000000    -2.119000000
O    -6.579000000     2.504000000     3.638000000
H    -5.917000000     1.822000000     3.757000000
H    -6.698000000     2.560000000     2.690000000
O    -4.803000000     0.134000000     3.602000000
H    -4.353000000    -0.443000000     4.219000000
H    -4.859000000    -0.376000000     2.794000000
O    -4.824000000     3.172000000    -1.358000000
H    -3.936000000     2.907000000    -1.599000000
H    -5.136000000     3.675000000    -2.110000000
O    -8.166000000     3.626000000     0.276000000
H    -8.798000000     4.128000000    -0.239000000
H    -8.179000000     2.752000000    -0.115000000
O    -5.921000000    -1.375000000    -3.090000000
H    -5.753000000    -1.643000000    -2.186000000
H    -5.232000000    -1.803000000    -3.598000000
O    -8.375000000    -2.445000000    -4.393000000
H    -8.357000000    -1.716000000    -5.013000000
H    -7.585000000    -2.330000000    -3.865000000
O    -8.745000000    -0.453000000     0.267000000
H    -9.342000000    -0.971000000    -0.272000000
H    -8.270000000     0.094000000    -0.359000000
O    -9.778000000     1.399000000     2.046000000
H   -10.210000000     0.646000000     2.449000000
H    -8.884000000     1.100000000     1.877000000
O    -5.701000000    -4.044000000     1.397000000
H    -5.031000000    -3.541000000     0.935000000
H    -6.348000000    -3.392000000     1.667000000
