215
-1450.90935
C    -0.762000000     1.343000000     5.359000000
H    -0.246000000     2.233000000     5.006000000
C    -0.207000000     0.062000000     5.164000000
C    -0.859000000    -1.051000000     5.621000000
H    -0.351000000    -2.012000000     5.605000000
C     1.068000000    -0.082000000     4.238000000
O     1.890000000     1.043000000     4.408000000
H     0.768000000    -0.108000000     3.180000000
O     1.838000000    -1.312000000     4.458000000
C     2.469000000    -1.956000000     3.375000000
C     1.756000000    -3.022000000     2.811000000
H     0.778000000    -3.349000000     3.156000000
C     2.322000000    -3.678000000     1.709000000
O     1.572000000    -4.710000000     1.218000000
C     3.478000000    -3.280000000     1.107000000
C     3.942000000    -3.888000000    -0.179000000
H     5.032000000    -3.831000000    -0.185000000
C     3.322000000    -3.199000000    -1.370000000
C     4.034000000    -2.198000000    -2.084000000
H     5.053000000    -2.018000000    -1.752000000
H     3.666000000    -4.944000000    -0.166000000
C     4.171000000    -2.202000000     1.698000000
H     5.084000000    -1.824000000     1.245000000
C     3.610000000    -1.554000000     2.783000000
C     4.277000000    -0.340000000     3.345000000
H     5.326000000    -0.332000000     3.041000000
H     4.355000000    -0.266000000     4.432000000
C     3.701000000     0.938000000     2.781000000
C     4.273000000     1.457000000     1.641000000
H     5.046000000     0.917000000     1.101000000
C     2.516000000     1.537000000     3.271000000
C     1.980000000     2.665000000     2.598000000
H     1.176000000     3.223000000     3.071000000
C     2.572000000     3.154000000     1.469000000
O     2.057000000     4.298000000     0.960000000
C     1.323000000     3.970000000    -0.236000000
C    -0.123000000     4.570000000    -0.248000000
C    -0.744000000     4.955000000    -1.441000000
H    -0.173000000     4.995000000    -2.364000000
C    -0.869000000     4.563000000     0.915000000
H    -0.514000000     4.144000000     1.853000000
O     2.015000000     4.341000000    -1.502000000
H     1.113000000     2.896000000    -0.343000000
C     3.759000000     2.582000000     1.019000000
C     4.488000000     3.096000000    -0.283000000
H     5.447000000     2.598000000    -0.127000000
H     4.858000000     4.118000000    -0.180000000
C     3.802000000     2.706000000    -1.525000000
C     4.306000000     1.465000000    -2.076000000
H     5.074000000     0.853000000    -1.609000000
C     2.745000000     3.377000000    -2.196000000
C     1.996000000     2.794000000    -3.259000000
H     1.047000000     3.242000000    -3.542000000
C     2.544000000     1.665000000    -3.787000000
O     1.753000000     1.076000000    -4.720000000
C     0.914000000    -0.021000000    -4.320000000
C    -0.563000000     0.052000000    -4.815000000
C    -1.103000000     1.250000000    -5.168000000
H    -0.392000000     2.070000000    -5.233000000
C    -1.367000000    -1.091000000    -4.736000000
H    -0.959000000    -2.032000000    -4.377000000
O     1.468000000    -1.356000000    -4.622000000
H     0.852000000     0.050000000    -3.224000000
C     3.586000000     0.932000000    -3.207000000
C     4.044000000    -0.377000000    -3.835000000
H     5.117000000    -0.418000000    -3.637000000
H     3.933000000    -0.479000000    -4.916000000
C     3.372000000    -1.583000000    -3.155000000
C     2.090000000    -1.939000000    -3.558000000
C     1.406000000    -2.901000000    -2.838000000
H     0.367000000    -3.170000000    -3.008000000
C     2.037000000    -3.564000000    -1.788000000
O     1.345000000    -4.570000000    -1.192000000
C     0.754000000    -4.199000000     0.121000000
H     0.697000000    -3.102000000     0.187000000
C    -0.671000000    -4.689000000     0.188000000
C    -1.374000000    -4.674000000     1.375000000
H    -0.869000000    -4.266000000     2.248000000
C    -1.328000000    -5.129000000    -0.977000000
H    -0.787000000    -5.112000000    -1.920000000
C    -2.665000000    -5.473000000    -0.921000000
O    -3.394000000    -5.772000000    -2.057000000
C    -3.316000000    -5.511000000     0.329000000
H    -4.321000000    -5.921000000     0.272000000
C    -2.693000000    -5.085000000     1.462000000
O    -3.410000000    -4.966000000     2.661000000
C    -2.913000000    -4.723000000     3.921000000
C    -3.198000000    -3.465000000     4.533000000
H    -3.579000000    -2.659000000     3.910000000
C    -2.350000000    -5.752000000     4.642000000
H    -2.191000000    -6.720000000     4.173000000
C    -1.886000000    -5.522000000     5.967000000
H    -1.315000000    -6.291000000     6.481000000
C    -2.057000000    -4.219000000     6.539000000
H    -1.722000000    -3.828000000     7.496000000
C    -2.797000000    -3.284000000     5.813000000
O    -2.970000000    -1.992000000     6.448000000
C    -2.212000000    -0.899000000     6.095000000
C    -2.716000000     0.386000000     6.329000000
H    -3.671000000     0.533000000     6.826000000
C    -1.978000000     1.500000000     6.016000000
O    -2.537000000     2.728000000     6.245000000
C    -2.292000000     3.823000000     5.441000000
C    -2.786000000     3.936000000     4.088000000
H    -3.475000000     3.177000000     3.725000000
C    -1.523000000     4.847000000     5.964000000
H    -0.992000000     4.756000000     6.908000000
C    -1.232000000     5.988000000     5.155000000
H    -0.720000000     6.810000000     5.649000000
C    -1.659000000     6.089000000     3.865000000
H    -1.464000000     6.956000000     3.239000000
C    -2.393000000     5.029000000     3.313000000
O    -2.908000000     5.192000000     2.061000000
C    -2.157000000     5.070000000     0.933000000
C    -2.731000000     5.611000000    -0.239000000
H    -3.746000000     5.994000000    -0.300000000
C    -2.039000000     5.520000000    -1.416000000
O    -2.752000000     5.855000000    -2.493000000
C    -2.439000000     5.496000000    -3.810000000
C    -2.911000000     4.364000000    -4.337000000
H    -3.614000000     3.710000000    -3.828000000
C    -1.572000000     6.290000000    -4.525000000
H    -1.113000000     7.174000000    -4.090000000
C    -1.208000000     5.872000000    -5.834000000
H    -0.643000000     6.520000000    -6.499000000
C    -1.668000000     4.724000000    -6.355000000
H    -1.336000000     4.513000000    -7.368000000
C    -2.448000000     3.889000000    -5.557000000
O    -2.857000000     2.590000000    -6.024000000
C    -2.441000000     1.343000000    -5.498000000
C    -3.268000000     0.221000000    -5.462000000
H    -4.310000000     0.266000000    -5.768000000
C    -2.755000000    -1.031000000    -5.065000000
O    -3.589000000    -2.127000000    -4.998000000
C    -3.169000000    -3.354000000    -4.828000000
C    -2.130000000    -3.939000000    -5.614000000
H    -1.799000000    -3.229000000    -6.369000000
C    -1.758000000    -5.256000000    -5.406000000
H    -1.003000000    -5.772000000    -5.993000000
C    -2.077000000    -5.839000000    -4.141000000
H    -1.657000000    -6.815000000    -3.909000000
C    -3.012000000    -5.210000000    -3.284000000
C    -3.478000000    -3.969000000    -3.655000000
H    -4.158000000    -3.496000000    -2.951000000
C    -2.364000000    -1.138000000    -0.739000000
H    -2.877000000    -1.770000000    -1.460000000
C    -0.946000000    -1.050000000    -0.922000000
H    -0.394000000    -1.634000000    -1.653000000
C    -0.251000000    -0.244000000    -0.031000000
H     0.831000000    -0.135000000    -0.065000000
C    -0.894000000     0.568000000     0.893000000
H    -0.266000000     1.163000000     1.550000000
C    -2.309000000     0.467000000     1.107000000
H    -2.809000000     1.047000000     1.878000000
C    -3.080000000    -0.354000000     0.203000000
C    -4.613000000    -0.279000000     0.407000000
O    -4.998000000     0.497000000     1.261000000
O    -5.287000000    -0.810000000    -0.471000000
O    -2.514000000     2.252000000    -1.684000000
H    -2.391000000     1.451000000    -1.175000000
H    -1.631000000     2.496000000    -1.963000000
O    -7.300000000    -0.326000000     2.256000000
H    -6.521000000     0.120000000     1.923000000
H    -7.954000000    -0.210000000     1.567000000
O    -5.432000000     2.888000000     1.486000000
H    -5.114000000     3.153000000     0.623000000
H    -5.320000000     1.937000000     1.500000000
O    -6.967000000    -3.817000000    -2.206000000
H    -6.770000000    -3.753000000    -1.272000000
H    -6.722000000    -2.963000000    -2.562000000
O    -6.575000000    -2.621000000     3.302000000
H    -6.928000000    -1.763000000     3.069000000
H    -6.721000000    -2.693000000     4.245000000
O    -6.643000000     1.004000000    -4.454000000
H    -6.856000000     1.775000000    -3.928000000
H    -6.364000000     0.348000000    -3.816000000
O    -6.248000000    -6.693000000    -2.421000000
H    -5.979000000    -5.790000000    -2.256000000
H    -6.944000000    -6.620000000    -3.075000000
O    -9.021000000    -0.106000000    -2.711000000
H    -8.657000000    -0.605000000    -3.442000000
H    -8.286000000     0.414000000    -2.386000000
O    -6.997000000     1.016000000    -1.458000000
H    -6.571000000     0.620000000    -0.697000000
H    -6.500000000     1.818000000    -1.620000000
O    -5.898000000     3.135000000     4.049000000
H    -5.522000000     2.336000000     4.418000000
H    -5.874000000     2.996000000     3.102000000
O    -9.106000000    -4.029000000    -3.715000000
H    -8.896000000    -3.344000000    -4.350000000
H    -8.380000000    -4.009000000    -3.093000000
O    -4.565000000     0.650000000     3.988000000
H    -4.821000000    -0.210000000     4.321000000
H    -4.518000000     0.536000000     3.039000000
O    -4.810000000     3.457000000    -1.090000000
H    -4.105000000     2.867000000    -1.357000000
H    -4.947000000     4.025000000    -1.848000000
O    -8.269000000     4.103000000     1.438000000
H    -8.514000000     4.498000000     0.601000000
H    -7.407000000     3.718000000     1.278000000
O    -6.469000000     3.622000000    -3.505000000
H    -6.882000000     3.598000000    -4.368000000
H    -6.307000000     4.552000000    -3.343000000
O    -5.792000000    -1.125000000    -3.144000000
H    -5.481000000    -0.973000000    -2.252000000
H    -4.996000000    -1.150000000    -3.674000000
O   -10.233000000    -0.344000000    -0.103000000
H   -10.708000000    -1.138000000     0.141000000
H    -9.691000000    -0.608000000    -0.846000000
O    -9.083000000     0.264000000     4.462000000
H    -8.519000000    -0.018000000     3.741000000
H    -8.576000000     0.939000000     4.912000000
O    -6.063000000    -3.391000000     0.288000000
H    -5.838000000    -2.479000000     0.103000000
H    -6.132000000    -3.431000000     1.242000000
