215
-1485.17445
C    -1.440000000     0.845000000     4.941000000
H    -0.830000000     1.691000000     4.637000000
C    -0.647000000    -0.306000000     5.010000000
C    -1.325000000    -1.456000000     5.384000000
H    -0.834000000    -2.426000000     5.363000000
C     0.714000000    -0.320000000     4.442000000
O     1.646000000     0.676000000     4.887000000
H     0.546000000    -0.239000000     3.358000000
O     1.335000000    -1.553000000     4.763000000
C     1.994000000    -2.268000000     3.726000000
C     1.248000000    -3.283000000     3.074000000
H     0.239000000    -3.537000000     3.390000000
C     1.825000000    -3.774000000     1.958000000
O     1.078000000    -4.528000000     1.125000000
C     3.066000000    -3.331000000     1.471000000
C     3.686000000    -3.968000000     0.236000000
H     4.777000000    -4.004000000     0.266000000
C     3.230000000    -3.244000000    -0.981000000
C     4.086000000    -2.258000000    -1.536000000
H     5.037000000    -1.988000000    -1.083000000
H     3.391000000    -5.019000000     0.215000000
C     3.825000000    -2.393000000     2.188000000
H     4.809000000    -2.113000000     1.820000000
C     3.314000000    -1.817000000     3.364000000
C     4.035000000    -0.718000000     4.113000000
H     5.106000000    -0.931000000     4.092000000
H     3.706000000    -0.810000000     5.150000000
C     3.590000000     0.616000000     3.506000000
C     4.277000000     1.025000000     2.391000000
H     5.169000000     0.528000000     2.017000000
C     2.419000000     1.246000000     3.946000000
C     2.021000000     2.370000000     3.235000000
H     1.148000000     2.882000000     3.629000000
C     2.699000000     2.796000000     2.138000000
O     2.101000000     3.801000000     1.423000000
C     1.429000000     3.637000000     0.157000000
C     0.236000000     4.580000000     0.065000000
C    -0.167000000     5.027000000    -1.191000000
H     0.518000000     4.827000000    -2.011000000
C    -0.589000000     4.805000000     1.175000000
H    -0.285000000     4.539000000     2.185000000
O     2.426000000     4.044000000    -0.822000000
H     1.052000000     2.610000000     0.045000000
C     3.837000000     2.160000000     1.698000000
C     4.609000000     2.640000000     0.453000000
H     5.628000000     2.247000000     0.485000000
H     4.667000000     3.728000000     0.386000000
C     4.120000000     2.232000000    -0.872000000
C     4.632000000     1.107000000    -1.557000000
H     5.471000000     0.577000000    -1.115000000
C     3.109000000     3.015000000    -1.470000000
C     2.585000000     2.580000000    -2.670000000
H     1.769000000     3.172000000    -3.076000000
C     3.072000000     1.418000000    -3.334000000
O     2.333000000     1.026000000    -4.369000000
C     1.433000000    -0.056000000    -4.303000000
C     0.197000000     0.273000000    -5.160000000
C    -0.258000000     1.572000000    -5.328000000
H     0.239000000     2.380000000    -4.798000000
C    -0.609000000    -0.782000000    -5.598000000
H    -0.244000000    -1.774000000    -5.344000000
O     2.151000000    -1.321000000    -4.587000000
H     1.113000000    -0.091000000    -3.251000000
C     4.104000000     0.651000000    -2.757000000
C     4.716000000    -0.612000000    -3.341000000
H     5.774000000    -0.806000000    -3.151000000
H     4.618000000    -0.730000000    -4.422000000
C     3.740000000    -1.649000000    -2.783000000
C     2.507000000    -1.967000000    -3.430000000
C     1.640000000    -2.855000000    -2.836000000
H     0.748000000    -3.158000000    -3.378000000
C     1.975000000    -3.470000000    -1.640000000
O     1.011000000    -4.290000000    -1.122000000
C     0.341000000    -3.803000000     0.028000000
H     0.508000000    -2.719000000     0.121000000
C    -1.094000000    -4.060000000    -0.058000000
C    -1.890000000    -4.225000000     1.079000000
H    -1.417000000    -4.204000000     2.057000000
C    -1.717000000    -3.869000000    -1.357000000
H    -1.062000000    -3.657000000    -2.199000000
C    -3.103000000    -3.906000000    -1.444000000
O    -3.845000000    -3.687000000    -2.620000000
C    -3.845000000    -4.317000000    -0.332000000
H    -4.901000000    -4.566000000    -0.405000000
C    -3.291000000    -4.334000000     0.933000000
O    -4.130000000    -4.574000000     1.991000000
C    -3.723000000    -4.724000000     3.283000000
C    -3.636000000    -3.572000000     4.076000000
H    -3.956000000    -2.571000000     3.795000000
C    -3.315000000    -5.933000000     3.801000000
H    -3.338000000    -6.878000000     3.263000000
C    -2.883000000    -6.004000000     5.108000000
H    -2.699000000    -6.987000000     5.534000000
C    -3.017000000    -4.949000000     5.981000000
H    -2.673000000    -5.141000000     6.994000000
C    -3.265000000    -3.732000000     5.450000000
O    -3.345000000    -2.603000000     6.249000000
C    -2.669000000    -1.443000000     5.838000000
C    -3.428000000    -0.298000000     5.670000000
H    -4.496000000    -0.264000000     5.872000000
C    -2.810000000     0.888000000     5.233000000
O    -3.545000000     2.022000000     4.982000000
C    -3.092000000     3.231000000     4.912000000
C    -3.291000000     3.965000000     3.772000000
H    -4.002000000     3.613000000     3.028000000
C    -2.195000000     3.754000000     5.894000000
H    -2.103000000     3.185000000     6.815000000
C    -1.638000000     5.043000000     5.663000000
H    -1.005000000     5.520000000     6.407000000
C    -1.831000000     5.731000000     4.423000000
H    -1.351000000     6.698000000     4.296000000
C    -2.530000000     5.111000000     3.443000000
O    -2.624000000     5.774000000     2.235000000
C    -1.813000000     5.508000000     1.128000000
C    -2.178000000     5.904000000    -0.125000000
H    -3.088000000     6.464000000    -0.321000000
C    -1.395000000     5.699000000    -1.240000000
O    -1.928000000     6.077000000    -2.468000000
C    -1.374000000     5.751000000    -3.682000000
C    -1.896000000     4.601000000    -4.304000000
H    -2.651000000     3.970000000    -3.841000000
C    -0.387000000     6.522000000    -4.240000000
H     0.007000000     7.377000000    -3.696000000
C     0.100000000     6.082000000    -5.437000000
H     0.921000000     6.595000000    -5.932000000
C    -0.418000000     4.964000000    -6.045000000
H    -0.039000000     4.753000000    -7.042000000
C    -1.474000000     4.189000000    -5.522000000
O    -1.998000000     3.066000000    -6.175000000
C    -1.447000000     1.813000000    -6.022000000
C    -2.211000000     0.781000000    -6.585000000
H    -3.112000000     1.045000000    -7.133000000
C    -1.807000000    -0.507000000    -6.270000000
O    -2.747000000    -1.473000000    -6.623000000
C    -2.834000000    -2.633000000    -5.914000000
C    -2.457000000    -3.829000000    -6.493000000
H    -2.058000000    -3.812000000    -7.504000000
C    -2.356000000    -5.021000000    -5.750000000
H    -2.052000000    -5.951000000    -6.223000000
C    -2.819000000    -4.948000000    -4.432000000
H    -2.865000000    -5.872000000    -3.862000000
C    -3.282000000    -3.779000000    -3.894000000
C    -3.256000000    -2.606000000    -4.651000000
H    -3.514000000    -1.674000000    -4.156000000
C    -2.009000000    -0.442000000    -1.124000000
H    -2.818000000    -0.718000000    -1.796000000
C    -0.660000000    -0.686000000    -1.361000000
H    -0.387000000    -1.246000000    -2.252000000
C     0.244000000    -0.317000000    -0.462000000
H     1.291000000    -0.643000000    -0.608000000
C    -0.113000000     0.290000000     0.742000000
H     0.632000000     0.643000000     1.451000000
C    -1.408000000     0.632000000     1.003000000
H    -1.691000000     1.062000000     1.960000000
C    -2.367000000     0.108000000     0.121000000
C    -3.867000000     0.273000000     0.428000000
O    -4.198000000     0.964000000     1.354000000
O    -4.691000000    -0.186000000    -0.364000000
O    -7.695000000    -4.626000000     3.386000000
H    -7.536000000    -4.527000000     2.447000000
H    -7.315000000    -5.477000000     3.604000000
O    -5.604000000     1.998000000    -6.380000000
H    -5.579000000     1.048000000    -6.268000000
H    -5.639000000     2.344000000    -5.489000000
O    -3.313000000     2.923000000    -1.087000000
H    -3.648000000     2.496000000    -0.298000000
H    -2.479000000     2.485000000    -1.260000000
O    -8.449000000     0.018000000     2.079000000
H    -7.769000000     0.281000000     2.698000000
H    -8.156000000     0.369000000     1.238000000
O    -6.053000000     2.870000000     1.245000000
H    -5.880000000     3.359000000     0.440000000
H    -5.402000000     2.169000000     1.245000000
O    -7.461000000    -4.356000000     0.535000000
H    -6.858000000    -3.679000000     0.843000000
H    -8.309000000    -3.914000000     0.481000000
O    -6.626000000    -2.380000000     4.563000000
H    -6.813000000    -3.198000000     4.103000000
H    -7.230000000    -2.378000000     5.305000000
O    -5.397000000     2.304000000    -3.262000000
H    -4.850000000     2.971000000    -2.848000000
H    -6.294000000     2.578000000    -3.073000000
O    -8.499000000     2.729000000    -3.148000000
H    -8.600000000     1.912000000    -3.637000000
H    -9.323000000     2.827000000    -2.672000000
O    -7.658000000     0.884000000    -0.300000000
H    -6.937000000     0.572000000    -0.846000000
H    -7.385000000     1.756000000    -0.017000000
O    -7.562000000     1.764000000     5.243000000
H    -7.112000000     1.190000000     4.624000000
H    -7.035000000     2.563000000     5.257000000
O    -8.018000000    -2.101000000    -3.378000000
H    -8.501000000    -1.297000000    -3.572000000
H    -7.320000000    -1.823000000    -2.785000000
O    -5.901000000     0.378000000     3.479000000
H    -5.448000000    -0.351000000     3.901000000
H    -5.335000000     0.620000000     2.746000000
O    -5.517000000     4.450000000    -1.070000000
H    -4.611000000     4.144000000    -1.090000000
H    -5.608000000     4.982000000    -1.861000000
O    -6.900000000     4.195000000     3.628000000
H    -7.635000000     4.306000000     3.024000000
H    -6.282000000     3.639000000     3.153000000
O    -5.629000000    -0.314000000    -2.707000000
H    -5.174000000    -0.551000000    -1.899000000
H    -5.417000000     0.609000000    -2.839000000
O    -6.168000000    -0.543000000    -5.639000000
H    -5.837000000    -0.455000000    -4.745000000
H    -6.374000000    -1.473000000    -5.728000000
O   -10.056000000     0.460000000    -1.567000000
H   -10.077000000    -0.494000000    -1.643000000
H    -9.326000000     0.637000000    -0.973000000
O    -6.435000000    -1.991000000     1.236000000
H    -5.905000000    -1.397000000     0.704000000
H    -7.069000000    -1.421000000     1.671000000
