215
-1439.55813
C    -1.461000000     1.271000000     4.755000000
H    -0.707000000     2.054000000     4.745000000
C    -1.095000000     0.006000000     4.517000000
C    -2.082000000    -0.973000000     4.297000000
H    -2.029000000    -2.015000000     3.993000000
C     0.348000000    -0.173000000     4.054000000
O     1.228000000     0.812000000     4.594000000
H     0.489000000    -0.084000000     2.967000000
O     0.653000000    -1.524000000     4.505000000
C     1.497000000    -2.250000000     3.604000000
C     0.872000000    -3.254000000     3.002000000
H    -0.127000000    -3.533000000     3.327000000
C     1.435000000    -3.986000000     2.013000000
O     0.606000000    -4.868000000     1.419000000
C     2.775000000    -3.670000000     1.617000000
C     3.509000000    -4.372000000     0.546000000
H     4.562000000    -4.497000000     0.808000000
C     3.345000000    -3.843000000    -0.843000000
C     4.076000000    -2.739000000    -1.209000000
H     4.846000000    -2.287000000    -0.589000000
H     3.275000000    -5.434000000     0.640000000
C     3.482000000    -2.787000000     2.444000000
H     4.562000000    -2.667000000     2.407000000
C     2.846000000    -2.002000000     3.345000000
C     3.525000000    -0.893000000     4.058000000
H     4.584000000    -1.133000000     4.180000000
H     3.127000000    -0.926000000     5.074000000
C     3.325000000     0.496000000     3.435000000
C     4.213000000     0.956000000     2.492000000
H     5.032000000     0.321000000     2.163000000
C     2.229000000     1.294000000     3.790000000
C     2.072000000     2.560000000     3.243000000
H     1.178000000     3.133000000     3.474000000
C     2.999000000     3.044000000     2.335000000
O     2.604000000     4.115000000     1.657000000
C     1.991000000     4.101000000     0.364000000
C     0.904000000     5.077000000     0.276000000
C     0.661000000     5.647000000    -0.967000000
H     1.313000000     5.432000000    -1.809000000
C    -0.094000000     5.182000000     1.220000000
H     0.004000000     4.589000000     2.126000000
O     2.948000000     4.131000000    -0.666000000
H     1.482000000     3.137000000     0.216000000
C     4.096000000     2.241000000     1.905000000
C     4.936000000     2.607000000     0.721000000
H     5.898000000     2.117000000     0.882000000
H     5.098000000     3.683000000     0.816000000
C     4.404000000     2.244000000    -0.619000000
C     4.757000000     1.045000000    -1.161000000
H     5.537000000     0.451000000    -0.690000000
C     3.311000000     2.883000000    -1.160000000
C     2.683000000     2.460000000    -2.296000000
H     1.845000000     3.024000000    -2.698000000
C     3.077000000     1.244000000    -2.843000000
O     2.403000000     0.706000000    -3.930000000
C     1.393000000    -0.249000000    -3.639000000
C     0.109000000     0.069000000    -4.361000000
C    -0.313000000     1.393000000    -4.432000000
H     0.447000000     2.169000000    -4.403000000
C    -0.812000000    -0.902000000    -4.685000000
H    -0.545000000    -1.955000000    -4.635000000
O     1.879000000    -1.497000000    -3.971000000
H     1.226000000    -0.150000000    -2.556000000
C     4.090000000     0.509000000    -2.248000000
C     4.497000000    -0.826000000    -2.827000000
H     5.545000000    -1.043000000    -2.613000000
H     4.413000000    -0.828000000    -3.916000000
C     3.682000000    -1.993000000    -2.319000000
C     2.502000000    -2.303000000    -2.999000000
C     1.774000000    -3.415000000    -2.693000000
H     0.769000000    -3.540000000    -3.088000000
C     2.182000000    -4.133000000    -1.540000000
O     1.338000000    -5.070000000    -0.944000000
C     0.283000000    -4.607000000    -0.015000000
H     0.345000000    -3.513000000    -0.118000000
C    -1.178000000    -4.876000000    -0.368000000
C    -2.181000000    -4.597000000     0.568000000
H    -1.801000000    -4.427000000     1.572000000
C    -1.557000000    -5.278000000    -1.680000000
H    -0.773000000    -5.405000000    -2.423000000
C    -2.904000000    -5.453000000    -1.962000000
O    -3.278000000    -5.752000000    -3.216000000
C    -3.887000000    -5.254000000    -0.990000000
H    -4.925000000    -5.492000000    -1.212000000
C    -3.516000000    -4.975000000     0.276000000
O    -4.566000000    -4.914000000     1.190000000
C    -4.389000000    -4.501000000     2.472000000
C    -4.590000000    -3.145000000     2.833000000
H    -4.658000000    -2.408000000     2.037000000
C    -4.158000000    -5.518000000     3.404000000
H    -4.176000000    -6.542000000     3.040000000
C    -4.032000000    -5.201000000     4.751000000
H    -3.592000000    -5.988000000     5.358000000
C    -4.133000000    -3.889000000     5.166000000
H    -3.908000000    -3.529000000     6.167000000
C    -4.455000000    -2.872000000     4.208000000
O    -4.471000000    -1.550000000     4.630000000
C    -3.431000000    -0.667000000     4.652000000
C    -3.742000000     0.643000000     5.043000000
H    -4.764000000     0.984000000     5.188000000
C    -2.778000000     1.617000000     5.106000000
O    -3.189000000     2.880000000     5.351000000
C    -2.503000000     3.966000000     4.939000000
C    -2.852000000     4.516000000     3.670000000
H    -3.612000000     4.046000000     3.050000000
C    -1.593000000     4.591000000     5.804000000
H    -1.605000000     4.131000000     6.789000000
C    -1.094000000     5.824000000     5.416000000
H    -0.423000000     6.270000000     6.145000000
C    -1.274000000     6.304000000     4.115000000
H    -0.810000000     7.228000000     3.779000000
C    -2.163000000     5.636000000     3.231000000
O    -2.291000000     6.240000000     1.955000000
C    -1.200000000     5.975000000     1.063000000
C    -1.423000000     6.605000000    -0.198000000
H    -2.258000000     7.270000000    -0.407000000
C    -0.417000000     6.457000000    -1.179000000
O    -0.653000000     6.893000000    -2.454000000
C    -0.731000000     6.108000000    -3.546000000
C    -1.271000000     4.806000000    -3.545000000
H    -1.801000000     4.423000000    -2.677000000
C    -0.090000000     6.573000000    -4.730000000
H     0.396000000     7.540000000    -4.634000000
C     0.002000000     5.770000000    -5.820000000
H     0.422000000     6.220000000    -6.716000000
C    -0.664000000     4.582000000    -5.863000000
H    -0.689000000     3.983000000    -6.769000000
C    -1.279000000     4.082000000    -4.755000000
O    -2.104000000     3.019000000    -4.951000000
C    -1.598000000     1.763000000    -4.949000000
C    -2.452000000     0.757000000    -5.284000000
H    -3.416000000     1.101000000    -5.650000000
C    -2.101000000    -0.600000000    -5.081000000
O    -3.063000000    -1.659000000    -5.501000000
C    -2.715000000    -3.007000000    -5.491000000
C    -1.874000000    -3.613000000    -6.417000000
H    -1.334000000    -3.109000000    -7.215000000
C    -1.520000000    -4.920000000    -6.234000000
H    -0.792000000    -5.352000000    -6.915000000
C    -2.016000000    -5.673000000    -5.199000000
H    -1.745000000    -6.722000000    -5.104000000
C    -2.916000000    -5.108000000    -4.298000000
C    -3.283000000    -3.759000000    -4.395000000
H    -3.983000000    -3.313000000    -3.693000000
C    -2.403000000    -1.467000000    -0.908000000
H    -3.035000000    -1.957000000    -1.644000000
C    -1.008000000    -1.390000000    -0.959000000
H    -0.536000000    -1.971000000    -1.746000000
C    -0.304000000    -0.725000000    -0.037000000
H     0.717000000    -0.650000000    -0.120000000
C    -0.940000000     0.130000000     0.831000000
H    -0.391000000     0.789000000     1.498000000
C    -2.335000000     0.047000000     0.861000000
H    -2.906000000     0.656000000     1.557000000
C    -3.156000000    -0.766000000     0.065000000
C    -4.698000000    -0.643000000    -0.013000000
O    -5.240000000     0.281000000     0.642000000
O    -5.404000000    -1.407000000    -0.672000000
O    -8.302000000    -4.674000000     2.756000000
H    -8.133000000    -4.138000000     1.981000000
H    -8.274000000    -5.575000000     2.435000000
O    -5.820000000     3.405000000    -3.760000000
H    -5.261000000     2.825000000    -4.276000000
H    -6.305000000     2.816000000    -3.180000000
O    -1.576000000     2.128000000    -1.395000000
H    -1.683000000     1.200000000    -1.189000000
H    -1.005000000     2.139000000    -2.163000000
O    -6.945000000    -2.963000000    -5.189000000
H    -6.920000000    -3.871000000    -5.490000000
H    -6.845000000    -3.022000000    -4.239000000
O    -8.745000000     2.465000000     0.353000000
H    -9.131000000     3.325000000     0.187000000
H    -9.322000000     2.065000000     1.003000000
O    -5.343000000     2.216000000     2.471000000
H    -4.817000000     2.940000000     2.132000000
H    -5.114000000     1.472000000     1.914000000
O    -8.532000000    -2.066000000     3.942000000
H    -8.344000000    -2.854000000     3.432000000
H    -8.055000000    -1.369000000     3.491000000
O    -6.575000000     1.574000000    -1.186000000
H    -6.117000000     1.062000000    -0.519000000
H    -7.242000000     2.058000000    -0.700000000
O    -7.879000000     1.381000000     3.418000000
H    -8.072000000     0.671000000     2.805000000
H    -7.124000000     1.829000000     3.036000000
O    -6.803000000    -2.691000000    -2.513000000
H    -7.138000000    -1.910000000    -2.954000000
H    -6.425000000    -2.363000000    -1.697000000
O    -7.490000000    -0.768000000     1.573000000
H    -7.629000000    -1.535000000     1.017000000
H    -6.687000000    -0.371000000     1.236000000
O    -3.189000000     3.500000000     0.639000000
H    -2.488000000     2.919000000     0.342000000
H    -3.229000000     4.185000000    -0.028000000
O    -4.272000000     4.791000000    -1.799000000
H    -4.683000000     4.091000000    -2.307000000
H    -4.054000000     5.461000000    -2.448000000
O    -3.953000000     1.426000000    -2.737000000
H    -4.251000000     1.684000000    -1.865000000
H    -3.056000000     1.757000000    -2.791000000
O    -5.718000000     0.330000000    -4.780000000
H    -5.313000000    -0.481000000    -5.089000000
H    -5.512000000     0.358000000    -3.845000000
O    -8.194000000    -0.721000000    -3.575000000
H    -8.887000000    -0.358000000    -4.128000000
H    -7.381000000    -0.468000000    -4.013000000
O    -9.317000000    -0.682000000    -0.762000000
H    -9.103000000    -0.864000000    -1.677000000
H    -8.931000000     0.177000000    -0.593000000
O    -9.041000000    -4.094000000    -1.604000000
H    -8.380000000    -3.702000000    -1.034000000
H    -9.475000000    -3.346000000    -2.016000000
O    -7.009000000    -3.417000000     0.507000000
H    -6.344000000    -2.820000000     0.163000000
H    -6.540000000    -4.238000000     0.655000000
