215
-1456.83957
C    -1.890000000     1.152000000     4.400000000
H    -1.235000000     1.970000000     4.114000000
C    -1.286000000    -0.099000000     4.549000000
C    -2.041000000    -1.165000000     5.014000000
H    -1.613000000    -2.149000000     5.190000000
C     0.213000000    -0.242000000     4.338000000
O     0.916000000     0.937000000     4.786000000
H     0.328000000    -0.332000000     3.248000000
O     0.703000000    -1.424000000     4.926000000
C     1.520000000    -2.184000000     4.084000000
C     0.924000000    -3.230000000     3.445000000
H    -0.133000000    -3.384000000     3.645000000
C     1.414000000    -3.794000000     2.345000000
O     0.618000000    -4.578000000     1.535000000
C     2.750000000    -3.444000000     1.900000000
C     3.555000000    -4.216000000     0.901000000
H     4.603000000    -3.955000000     1.063000000
C     3.384000000    -3.640000000    -0.494000000
C     4.278000000    -2.688000000    -0.946000000
H     5.049000000    -2.392000000    -0.239000000
H     3.345000000    -5.287000000     0.961000000
C     3.424000000    -2.475000000     2.653000000
H     4.459000000    -2.315000000     2.364000000
C     2.808000000    -1.784000000     3.727000000
C     3.363000000    -0.535000000     4.424000000
H     4.452000000    -0.558000000     4.354000000
H     2.981000000    -0.516000000     5.447000000
C     3.056000000     0.764000000     3.705000000
C     3.960000000     1.280000000     2.731000000
H     4.812000000     0.733000000     2.335000000
C     1.848000000     1.476000000     3.975000000
C     1.586000000     2.670000000     3.304000000
H     0.688000000     3.259000000     3.471000000
C     2.401000000     3.040000000     2.204000000
O     2.084000000     4.180000000     1.457000000
C     1.475000000     3.870000000     0.211000000
C     0.157000000     4.761000000    -0.079000000
C    -0.138000000     5.193000000    -1.322000000
H     0.526000000     4.888000000    -2.127000000
C    -0.588000000     5.218000000     1.029000000
H    -0.277000000     4.947000000     2.035000000
O     2.469000000     4.006000000    -0.845000000
H     1.241000000     2.797000000     0.151000000
C     3.585000000     2.410000000     1.967000000
C     4.572000000     2.950000000     0.906000000
H     5.624000000     2.751000000     1.124000000
H     4.524000000     4.030000000     0.753000000
C     4.191000000     2.269000000    -0.460000000
C     4.740000000     1.037000000    -0.902000000
H     5.601000000     0.591000000    -0.412000000
C     3.261000000     2.941000000    -1.303000000
C     2.945000000     2.436000000    -2.540000000
H     2.231000000     2.956000000    -3.174000000
C     3.468000000     1.244000000    -2.951000000
O     3.003000000     0.705000000    -4.157000000
C     1.989000000    -0.283000000    -3.929000000
C     0.759000000    -0.055000000    -4.819000000
C     0.418000000     1.304000000    -5.139000000
H     1.061000000     2.082000000    -4.736000000
C    -0.070000000    -1.052000000    -5.240000000
H     0.194000000    -2.091000000    -5.055000000
O     2.347000000    -1.691000000    -4.010000000
H     1.665000000    -0.232000000    -2.879000000
C     4.335000000     0.493000000    -2.129000000
C     4.895000000    -0.836000000    -2.549000000
H     5.884000000    -0.928000000    -2.095000000
H     5.223000000    -0.906000000    -3.588000000
C     4.011000000    -2.005000000    -2.171000000
C     2.818000000    -2.354000000    -2.864000000
C     1.991000000    -3.383000000    -2.425000000
H     1.099000000    -3.639000000    -2.991000000
C     2.269000000    -3.984000000    -1.207000000
O     1.235000000    -4.763000000    -0.766000000
C     0.323000000    -4.145000000     0.180000000
H     0.584000000    -3.076000000     0.183000000
C    -1.147000000    -4.392000000    -0.145000000
C    -2.135000000    -4.297000000     0.826000000
H    -1.890000000    -4.046000000     1.855000000
C    -1.538000000    -4.616000000    -1.485000000
H    -0.772000000    -4.606000000    -2.256000000
C    -2.871000000    -4.832000000    -1.790000000
O    -3.245000000    -5.238000000    -3.025000000
C    -3.830000000    -4.699000000    -0.782000000
H    -4.893000000    -4.820000000    -0.970000000
C    -3.489000000    -4.450000000     0.525000000
O    -4.531000000    -4.445000000     1.491000000
C    -4.332000000    -4.448000000     2.849000000
C    -4.249000000    -3.243000000     3.518000000
H    -4.376000000    -2.370000000     2.883000000
C    -4.308000000    -5.682000000     3.523000000
H    -4.379000000    -6.637000000     3.009000000
C    -4.113000000    -5.691000000     4.890000000
H    -4.033000000    -6.685000000     5.323000000
C    -4.086000000    -4.505000000     5.571000000
H    -4.147000000    -4.531000000     6.656000000
C    -4.163000000    -3.255000000     4.920000000
O    -4.261000000    -2.065000000     5.597000000
C    -3.413000000    -0.954000000     5.241000000
C    -3.980000000     0.301000000     5.068000000
H    -5.030000000     0.512000000     5.252000000
C    -3.264000000     1.314000000     4.552000000
O    -3.870000000     2.601000000     4.337000000
C    -3.222000000     3.766000000     4.303000000
C    -3.053000000     4.434000000     3.097000000
H    -3.379000000     3.953000000     2.178000000
C    -2.716000000     4.311000000     5.465000000
H    -2.882000000     3.796000000     6.407000000
C    -2.186000000     5.652000000     5.498000000
H    -1.803000000     6.132000000     6.395000000
C    -2.093000000     6.364000000     4.301000000
H    -1.560000000     7.308000000     4.370000000
C    -2.521000000     5.741000000     3.116000000
O    -2.513000000     6.439000000     1.833000000
C    -1.709000000     6.059000000     0.763000000
C    -1.978000000     6.424000000    -0.563000000
H    -2.843000000     7.051000000    -0.764000000
C    -1.315000000     5.894000000    -1.610000000
O    -1.798000000     6.178000000    -2.902000000
C    -1.184000000     5.694000000    -4.026000000
C    -1.491000000     4.494000000    -4.603000000
H    -2.365000000     3.989000000    -4.201000000
C    -0.084000000     6.429000000    -4.430000000
H     0.337000000     7.135000000    -3.719000000
C     0.597000000     6.083000000    -5.596000000
H     1.439000000     6.671000000    -5.954000000
C     0.245000000     4.909000000    -6.307000000
H     0.824000000     4.471000000    -7.116000000
C    -0.721000000     4.063000000    -5.683000000
O    -1.071000000     2.811000000    -6.287000000
C    -0.687000000     1.566000000    -5.862000000
C    -1.535000000     0.535000000    -6.214000000
H    -2.430000000     0.754000000    -6.791000000
C    -1.243000000    -0.761000000    -5.919000000
O    -2.181000000    -1.799000000    -6.244000000
C    -2.025000000    -3.138000000    -5.808000000
C    -1.319000000    -4.111000000    -6.529000000
H    -0.826000000    -3.922000000    -7.479000000
C    -1.145000000    -5.422000000    -6.122000000
H    -0.542000000    -6.111000000    -6.708000000
C    -1.740000000    -5.735000000    -4.899000000
H    -1.547000000    -6.729000000    -4.503000000
C    -2.509000000    -4.832000000    -4.180000000
C    -2.611000000    -3.482000000    -4.598000000
H    -3.258000000    -2.777000000    -4.082000000
C    -2.170000000    -1.289000000    -1.377000000
H    -2.727000000    -1.843000000    -2.127000000
C    -0.855000000    -0.925000000    -1.548000000
H    -0.342000000    -1.136000000    -2.483000000
C    -0.212000000    -0.199000000    -0.595000000
H     0.768000000     0.141000000    -0.896000000
C    -0.863000000     0.151000000     0.647000000
H    -0.299000000     0.741000000     1.366000000
C    -2.216000000    -0.232000000     0.792000000
H    -2.690000000    -0.003000000     1.743000000
C    -2.869000000    -0.937000000    -0.184000000
C    -4.362000000    -1.181000000    -0.008000000
O    -4.977000000    -0.726000000     0.937000000
O    -5.008000000    -1.654000000    -0.950000000
O    -9.277000000     1.288000000     3.861000000
H    -8.887000000     0.753000000     3.169000000
H   -10.178000000     0.973000000     3.928000000
O    -7.843000000    -2.528000000     4.516000000
H    -8.087000000    -2.566000000     3.591000000
H    -8.678000000    -2.477000000     4.982000000
O    -2.950000000     2.425000000     0.018000000
H    -2.204000000     1.976000000     0.415000000
H    -2.667000000     2.615000000    -0.876000000
O    -5.719000000    -1.775000000    -4.751000000
H    -4.933000000    -1.341000000    -5.081000000
H    -6.390000000    -1.588000000    -5.408000000
O    -5.781000000     1.764000000     0.518000000
H    -4.881000000     1.994000000     0.287000000
H    -5.785000000     0.808000000     0.544000000
O    -6.504000000     2.872000000     3.571000000
H    -5.588000000     3.027000000     3.801000000
H    -6.555000000     1.929000000     3.412000000
O    -8.777000000     3.571000000     0.794000000
H    -9.138000000     3.070000000     1.525000000
H    -7.830000000     3.549000000     0.933000000
O    -9.830000000    -0.268000000    -1.878000000
H    -8.978000000    -0.175000000    -1.452000000
H    -9.993000000     0.586000000    -2.277000000
O    -6.468000000    -0.077000000     3.085000000
H    -6.661000000    -0.807000000     3.672000000
H    -5.914000000    -0.457000000     2.404000000
O    -6.933000000    -3.370000000    -2.420000000
H    -6.527000000    -2.970000000    -3.189000000
H    -6.555000000    -2.899000000    -1.678000000
O    -9.153000000    -0.464000000     1.873000000
H    -8.493000000    -0.947000000     1.376000000
H    -9.382000000     0.276000000     1.310000000
O    -9.661000000    -4.316000000    -2.935000000
H   -10.281000000    -3.920000000    -2.322000000
H    -8.822000000    -3.905000000    -2.725000000
O    -2.784000000     1.922000000    -2.753000000
H    -2.339000000     1.497000000    -3.487000000
H    -3.638000000     1.492000000    -2.709000000
O    -7.274000000     2.620000000    -2.810000000
H    -6.877000000     1.821000000    -3.158000000
H    -6.544000000     3.233000000    -2.728000000
O    -7.621000000     0.426000000    -0.752000000
H    -7.535000000     1.047000000    -0.028000000
H    -6.785000000     0.481000000    -1.214000000
O    -8.981000000    -3.694000000    -0.033000000
H    -8.323000000    -3.343000000     0.567000000
H    -8.979000000    -3.086000000    -0.772000000
O    -7.502000000    -6.201000000    -1.495000000
H    -8.369000000    -6.077000000    -1.111000000
H    -7.294000000    -5.356000000    -1.894000000
O    -6.806000000    -2.732000000     1.331000000
H    -6.233000000    -2.034000000     1.016000000
H    -6.210000000    -3.442000000     1.569000000
O    -5.505000000     0.259000000    -2.827000000
H    -5.550000000    -0.333000000    -3.578000000
H    -5.252000000    -0.303000000    -2.095000000
