215
-1440.58680
C     0.258000000     1.993000000     5.114000000
H     0.783000000     2.769000000     4.563000000
C     0.623000000     0.664000000     5.008000000
C    -0.160000000    -0.239000000     5.712000000
H     0.106000000    -1.287000000     5.601000000
C     1.789000000     0.300000000     4.032000000
O     2.842000000     1.318000000     4.090000000
H     1.257000000     0.164000000     3.079000000
O     2.472000000    -0.907000000     4.364000000
C     2.803000000    -1.787000000     3.395000000
C     1.843000000    -2.715000000     2.984000000
H     0.881000000    -2.861000000     3.470000000
C     2.090000000    -3.487000000     1.821000000
O     0.928000000    -4.165000000     1.578000000
C     3.202000000    -3.412000000     1.048000000
C     3.350000000    -4.389000000    -0.102000000
H     4.427000000    -4.572000000    -0.123000000
C     2.753000000    -3.784000000    -1.388000000
C     3.435000000    -2.952000000    -2.225000000
H     4.487000000    -2.796000000    -1.998000000
H     2.995000000    -5.376000000     0.203000000
C     4.152000000    -2.378000000     1.396000000
H     5.020000000    -2.112000000     0.798000000
C     3.897000000    -1.596000000     2.558000000
C     4.865000000    -0.403000000     2.902000000
H     5.840000000    -0.714000000     2.520000000
H     5.006000000    -0.212000000     3.968000000
C     4.251000000     0.777000000     2.165000000
C     4.533000000     1.152000000     0.870000000
H     5.113000000     0.481000000     0.242000000
C     3.306000000     1.619000000     2.856000000
C     2.784000000     2.722000000     2.144000000
H     2.087000000     3.374000000     2.665000000
C     3.158000000     3.063000000     0.871000000
O     2.465000000     3.989000000     0.175000000
C     1.498000000     3.599000000    -0.773000000
C     0.278000000     4.400000000    -0.590000000
C    -0.715000000     4.541000000    -1.575000000
H    -0.625000000     3.998000000    -2.512000000
C     0.068000000     5.110000000     0.628000000
H     0.795000000     5.011000000     1.430000000
O     2.036000000     3.791000000    -2.111000000
H     1.301000000     2.521000000    -0.678000000
C     4.144000000     2.341000000     0.240000000
C     4.590000000     2.654000000    -1.214000000
H     5.617000000     2.314000000    -1.359000000
H     4.660000000     3.742000000    -1.284000000
C     3.664000000     2.026000000    -2.211000000
C     4.017000000     0.776000000    -2.700000000
H     4.892000000     0.288000000    -2.278000000
C     2.481000000     2.670000000    -2.662000000
C     1.697000000     2.052000000    -3.599000000
H     0.729000000     2.414000000    -3.935000000
C     2.076000000     0.819000000    -4.078000000
O     1.208000000     0.219000000    -4.912000000
C     0.269000000    -0.754000000    -4.409000000
C    -1.130000000    -0.639000000    -4.876000000
C    -1.683000000     0.574000000    -5.031000000
H    -1.133000000     1.482000000    -4.798000000
C    -1.897000000    -1.826000000    -5.208000000
H    -1.517000000    -2.827000000    -5.017000000
O     0.899000000    -2.104000000    -4.705000000
H     0.291000000    -0.663000000    -3.313000000
C     3.177000000     0.119000000    -3.649000000
C     3.602000000    -1.272000000    -4.107000000
H     4.669000000    -1.434000000    -3.945000000
H     3.554000000    -1.495000000    -5.175000000
C     2.854000000    -2.328000000    -3.286000000
C     1.581000000    -2.744000000    -3.638000000
C     0.927000000    -3.672000000    -2.823000000
H    -0.122000000    -3.918000000    -2.968000000
C     1.424000000    -4.073000000    -1.628000000
O     0.647000000    -4.704000000    -0.716000000
C     0.158000000    -3.971000000     0.408000000
H     0.226000000    -2.923000000     0.079000000
C    -1.327000000    -4.217000000     0.667000000
C    -1.872000000    -4.023000000     1.982000000
H    -1.187000000    -3.622000000     2.724000000
C    -2.212000000    -4.291000000    -0.377000000
H    -1.811000000    -4.400000000    -1.382000000
C    -3.606000000    -4.212000000    -0.172000000
O    -4.509000000    -4.422000000    -1.265000000
C    -4.092000000    -4.182000000     1.124000000
H    -5.164000000    -4.124000000     1.291000000
C    -3.236000000    -4.024000000     2.215000000
O    -3.795000000    -3.607000000     3.427000000
C    -3.051000000    -3.496000000     4.583000000
C    -2.818000000    -2.185000000     5.070000000
H    -3.073000000    -1.258000000     4.564000000
C    -2.806000000    -4.688000000     5.342000000
H    -3.013000000    -5.633000000     4.846000000
C    -2.390000000    -4.516000000     6.662000000
H    -2.184000000    -5.363000000     7.312000000
C    -2.056000000    -3.233000000     7.114000000
H    -1.796000000    -3.112000000     8.162000000
C    -2.359000000    -2.063000000     6.397000000
O    -2.062000000    -0.818000000     7.011000000
C    -1.248000000     0.200000000     6.480000000
C    -1.572000000     1.523000000     6.597000000
H    -2.476000000     1.809000000     7.127000000
C    -0.885000000     2.430000000     5.802000000
O    -1.331000000     3.754000000     5.792000000
C    -0.692000000     4.821000000     5.183000000
C    -1.223000000     5.144000000     4.024000000
H    -2.029000000     4.586000000     3.553000000
C     0.480000000     5.395000000     5.767000000
H     0.868000000     5.021000000     6.711000000
C     1.067000000     6.378000000     4.903000000
H     2.046000000     6.822000000     5.067000000
C     0.491000000     6.732000000     3.702000000
H     0.837000000     7.611000000     3.164000000
C    -0.637000000     6.110000000     3.212000000
O    -1.284000000     6.501000000     2.060000000
C    -1.097000000     5.849000000     0.842000000
C    -2.082000000     5.944000000    -0.159000000
H    -2.921000000     6.589000000     0.087000000
C    -1.855000000     5.269000000    -1.406000000
O    -2.724000000     5.399000000    -2.440000000
C    -2.602000000     4.850000000    -3.678000000
C    -3.206000000     3.610000000    -3.854000000
H    -3.772000000     3.086000000    -3.088000000
C    -1.765000000     5.417000000    -4.625000000
H    -1.262000000     6.372000000    -4.499000000
C    -1.627000000     4.750000000    -5.870000000
H    -0.886000000     5.070000000    -6.598000000
C    -2.360000000     3.571000000    -6.147000000
H    -2.135000000     2.994000000    -7.041000000
C    -3.182000000     3.041000000    -5.161000000
O    -3.722000000     1.813000000    -5.437000000
C    -3.023000000     0.640000000    -5.486000000
C    -3.703000000    -0.463000000    -5.884000000
H    -4.755000000    -0.321000000    -6.118000000
C    -3.177000000    -1.701000000    -5.689000000
O    -4.006000000    -2.767000000    -5.723000000
C    -3.928000000    -3.816000000    -4.797000000
C    -3.503000000    -5.089000000    -5.255000000
H    -3.101000000    -5.130000000    -6.265000000
C    -3.345000000    -6.126000000    -4.299000000
H    -2.863000000    -7.068000000    -4.546000000
C    -3.738000000    -5.879000000    -3.004000000
H    -3.704000000    -6.773000000    -2.386000000
C    -4.116000000    -4.630000000    -2.580000000
C    -4.246000000    -3.597000000    -3.456000000
H    -4.486000000    -2.571000000    -3.189000000
C    -2.381000000     0.063000000    -1.328000000
H    -3.087000000    -0.371000000    -2.032000000
C    -1.096000000    -0.528000000    -1.208000000
H    -0.871000000    -1.406000000    -1.807000000
C    -0.121000000    -0.130000000    -0.292000000
H     0.806000000    -0.646000000    -0.222000000
C    -0.423000000     1.053000000     0.407000000
H     0.215000000     1.408000000     1.212000000
C    -1.640000000     1.782000000     0.164000000
H    -1.768000000     2.675000000     0.771000000
C    -2.638000000     1.273000000    -0.684000000
C    -3.977000000     1.918000000    -0.707000000
O    -4.130000000     3.042000000    -0.361000000
O    -4.909000000     1.272000000    -1.124000000
O    -7.091000000    -1.913000000    -3.540000000
H    -7.953000000    -2.266000000    -3.758000000
H    -7.052000000    -1.075000000    -4.000000000
O    -4.262000000     4.323000000     2.470000000
H    -4.335000000     3.586000000     3.077000000
H    -4.313000000     3.923000000     1.602000000
O    -7.600000000     4.510000000    -4.270000000
H    -8.472000000     4.289000000    -4.595000000
H    -7.273000000     3.695000000    -3.888000000
O    -9.451000000     5.915000000    -0.308000000
H    -9.241000000     5.076000000    -0.717000000
H    -8.626000000     6.206000000     0.080000000
O    -5.871000000     4.797000000    -1.148000000
H    -5.052000000     4.309000000    -1.237000000
H    -6.450000000     4.206000000    -0.667000000
O    -7.268000000     6.971000000    -2.321000000
H    -7.042000000     6.131000000    -1.921000000
H    -8.100000000     6.808000000    -2.766000000
O    -8.235000000     0.471000000    -0.670000000
H    -8.550000000     0.608000000    -1.563000000
H    -7.445000000    -0.058000000    -0.772000000
O    -6.688000000     6.307000000     0.890000000
H    -5.801000000     6.311000000     1.249000000
H    -6.570000000     6.119000000    -0.041000000
O    -3.973000000     1.950000000     3.836000000
H    -4.434000000     1.666000000     4.625000000
H    -3.118000000     2.243000000     4.151000000
O    -4.961000000     6.858000000    -3.770000000
H    -5.830000000     6.939000000    -3.377000000
H    -4.792000000     5.916000000    -3.785000000
O    -4.555000000     7.079000000     2.361000000
H    -4.169000000     6.223000000     2.174000000
H    -4.761000000     7.051000000     3.295000000
O    -7.492000000     0.051000000     3.527000000
H    -7.317000000    -0.659000000     4.145000000
H    -7.020000000    -0.200000000     2.733000000
O    -8.045000000     2.737000000     3.125000000
H    -7.686000000     2.857000000     2.246000000
H    -7.828000000     1.832000000     3.351000000
O    -6.631000000     1.917000000    -3.036000000
H    -6.763000000     1.032000000    -3.376000000
H    -6.064000000     1.800000000    -2.275000000
O    -7.151000000     2.486000000     0.555000000
H    -7.544000000     1.630000000     0.382000000
H    -6.276000000     2.430000000     0.171000000
O    -6.941000000     0.024000000    -5.501000000
H    -7.310000000     0.843000000    -5.832000000
H    -6.729000000    -0.478000000    -6.288000000
O    -9.040000000     3.345000000    -1.506000000
H    -8.584000000     2.970000000    -0.752000000
H    -8.722000000     2.838000000    -2.254000000
O    -5.122000000    -0.928000000     1.727000000
H    -4.675000000    -0.091000000     1.855000000
H    -5.390000000    -0.919000000     0.808000000
O    -5.830000000    -1.057000000    -0.890000000
H    -5.582000000    -1.763000000    -1.486000000
H    -5.477000000    -0.265000000    -1.297000000
