215
-1450.88252
C     0.889000000     2.139000000     4.829000000
H     1.563000000     2.799000000     4.287000000
C     1.197000000     0.798000000     4.866000000
C     0.331000000    -0.054000000     5.578000000
H     0.603000000    -1.097000000     5.716000000
C     2.233000000     0.268000000     3.864000000
O     3.427000000     1.082000000     3.640000000
H     1.629000000     0.286000000     2.944000000
O     2.720000000    -1.096000000     4.230000000
C     2.798000000    -2.068000000     3.216000000
C     1.710000000    -3.008000000     3.154000000
H     1.022000000    -3.066000000     3.994000000
C     1.559000000    -3.792000000     2.024000000
O     0.374000000    -4.362000000     1.781000000
C     2.619000000    -3.749000000     1.096000000
C     2.591000000    -4.687000000    -0.040000000
H     3.570000000    -4.978000000    -0.428000000
C     1.854000000    -4.121000000    -1.197000000
C     2.580000000    -3.634000000    -2.266000000
H     3.652000000    -3.492000000    -2.158000000
H     2.168000000    -5.639000000     0.286000000
C     3.709000000    -2.878000000     1.183000000
H     4.439000000    -2.810000000     0.380000000
C     3.809000000    -1.991000000     2.245000000
C     5.007000000    -1.177000000     2.467000000
H     5.852000000    -1.675000000     1.988000000
H     5.296000000    -1.078000000     3.516000000
C     4.719000000     0.227000000     1.809000000
C     5.054000000     0.345000000     0.463000000
H     5.795000000    -0.331000000     0.045000000
C     3.884000000     1.189000000     2.381000000
C     3.499000000     2.333000000     1.677000000
H     2.853000000     3.066000000     2.153000000
C     3.948000000     2.494000000     0.351000000
O     3.469000000     3.542000000    -0.420000000
C     2.366000000     3.281000000    -1.313000000
C     1.224000000     4.220000000    -1.266000000
C     0.522000000     4.572000000    -2.449000000
H     0.785000000     4.235000000    -3.448000000
C     0.669000000     4.630000000    -0.079000000
H     1.085000000     4.282000000     0.864000000
O     2.879000000     3.239000000    -2.660000000
H     1.937000000     2.293000000    -1.091000000
C     4.637000000     1.412000000    -0.235000000
C     5.074000000     1.497000000    -1.614000000
H     5.931000000     0.859000000    -1.840000000
H     5.477000000     2.466000000    -1.914000000
C     3.949000000     1.069000000    -2.611000000
C     3.855000000    -0.277000000    -2.945000000
H     4.561000000    -0.984000000    -2.518000000
C     3.041000000     1.977000000    -3.179000000
C     2.023000000     1.464000000    -4.035000000
H     1.434000000     2.199000000    -4.579000000
C     1.967000000     0.104000000    -4.318000000
O     0.831000000    -0.320000000    -5.010000000
C    -0.168000000    -1.094000000    -4.263000000
C    -1.562000000    -0.533000000    -4.402000000
C    -1.748000000     0.651000000    -5.150000000
H    -0.866000000     1.119000000    -5.580000000
C    -2.650000000    -1.114000000    -3.789000000
H    -2.398000000    -1.924000000    -3.110000000
O    -0.163000000    -2.562000000    -4.469000000
H     0.071000000    -0.900000000    -3.207000000
C     2.903000000    -0.787000000    -3.782000000
C     2.876000000    -2.249000000    -4.260000000
H     3.903000000    -2.608000000    -4.351000000
H     2.421000000    -2.115000000    -5.243000000
C     1.971000000    -3.135000000    -3.400000000
C     0.595000000    -3.301000000    -3.547000000
C    -0.120000000    -3.980000000    -2.530000000
H    -1.180000000    -4.160000000    -2.689000000
C     0.505000000    -4.288000000    -1.349000000
O    -0.286000000    -4.775000000    -0.317000000
C    -0.486000000    -3.912000000     0.820000000
H    -0.250000000    -2.858000000     0.613000000
C    -1.883000000    -3.944000000     1.328000000
C    -2.083000000    -3.843000000     2.729000000
H    -1.235000000    -3.658000000     3.384000000
C    -2.962000000    -3.890000000     0.439000000
H    -2.846000000    -3.901000000    -0.642000000
C    -4.269000000    -3.976000000     0.960000000
O    -5.285000000    -4.195000000     0.111000000
C    -4.493000000    -4.055000000     2.354000000
H    -5.495000000    -4.058000000     2.776000000
C    -3.398000000    -3.929000000     3.211000000
O    -3.651000000    -3.905000000     4.582000000
C    -2.972000000    -3.436000000     5.642000000
C    -2.603000000    -2.115000000     5.777000000
H    -2.940000000    -1.416000000     5.016000000
C    -2.461000000    -4.314000000     6.595000000
H    -2.579000000    -5.384000000     6.443000000
C    -1.607000000    -3.880000000     7.669000000
H    -1.127000000    -4.603000000     8.323000000
C    -1.327000000    -2.537000000     7.799000000
H    -0.798000000    -2.164000000     8.673000000
C    -1.855000000    -1.649000000     6.882000000
O    -1.662000000    -0.287000000     6.992000000
C    -0.780000000     0.450000000     6.221000000
C    -1.122000000     1.787000000     6.088000000
H    -2.020000000     2.261000000     6.476000000
C    -0.180000000     2.622000000     5.532000000
O    -0.470000000     4.001000000     5.595000000
C    -0.042000000     4.859000000     4.629000000
C    -0.718000000     5.012000000     3.446000000
H    -1.622000000     4.436000000     3.264000000
C     1.078000000     5.662000000     4.895000000
H     1.573000000     5.538000000     5.855000000
C     1.552000000     6.568000000     3.881000000
H     2.487000000     7.111000000     3.986000000
C     0.882000000     6.677000000     2.748000000
H     1.270000000     7.369000000     2.005000000
C    -0.247000000     5.948000000     2.459000000
O    -0.832000000     6.103000000     1.220000000
C    -0.307000000     5.591000000     0.009000000
C    -0.932000000     6.049000000    -1.175000000
H    -1.731000000     6.784000000    -1.232000000
C    -0.576000000     5.461000000    -2.372000000
O    -1.361000000     5.853000000    -3.469000000
C    -1.444000000     5.210000000    -4.610000000
C    -2.199000000     4.041000000    -4.693000000
H    -2.639000000     3.605000000    -3.800000000
C    -0.866000000     5.806000000    -5.740000000
H    -0.431000000     6.794000000    -5.617000000
C    -1.128000000     5.196000000    -6.988000000
H    -0.798000000     5.673000000    -7.907000000
C    -1.923000000     4.032000000    -7.087000000
H    -2.289000000     3.729000000    -8.065000000
C    -2.357000000     3.414000000    -5.916000000
O    -3.228000000     2.380000000    -5.971000000
C    -3.022000000     1.263000000    -5.211000000
C    -4.092000000     0.639000000    -4.697000000
H    -5.071000000     1.066000000    -4.902000000
C    -3.930000000    -0.568000000    -4.067000000
O    -5.060000000    -1.242000000    -3.708000000
C    -5.188000000    -2.522000000    -3.196000000
C    -5.509000000    -3.609000000    -4.009000000
H    -5.565000000    -3.437000000    -5.081000000
C    -5.865000000    -4.831000000    -3.419000000
H    -6.094000000    -5.672000000    -4.068000000
C    -5.886000000    -5.013000000    -2.002000000
H    -6.136000000    -5.982000000    -1.578000000
C    -5.449000000    -3.964000000    -1.227000000
C    -5.189000000    -2.701000000    -1.776000000
H    -4.993000000    -1.812000000    -1.183000000
C    -2.280000000     0.750000000    -0.999000000
H    -3.096000000     1.107000000    -1.621000000
C    -0.951000000     0.783000000    -1.500000000
H    -0.750000000     1.210000000    -2.479000000
C     0.108000000     0.375000000    -0.644000000
H     1.055000000     0.206000000    -1.026000000
C    -0.200000000     0.024000000     0.695000000
H     0.632000000    -0.206000000     1.356000000
C    -1.557000000    -0.040000000     1.127000000
H    -1.800000000    -0.383000000     2.130000000
C    -2.572000000     0.387000000     0.278000000
C    -3.972000000     0.288000000     0.756000000
O    -4.258000000     0.064000000     1.921000000
O    -4.850000000     0.544000000    -0.058000000
O    -8.890000000     0.660000000    -4.052000000
H    -8.438000000     1.313000000    -4.586000000
H    -8.561000000     0.805000000    -3.165000000
O    -2.888000000     3.615000000    -0.088000000
H    -3.324000000     3.514000000    -0.935000000
H    -2.064000000     3.138000000    -0.185000000
O   -10.159000000     1.802000000    -0.724000000
H    -9.416000000     2.341000000    -0.996000000
H    -9.777000000     0.945000000    -0.534000000
O    -8.669000000     0.525000000     1.642000000
H    -8.658000000     0.218000000     0.736000000
H    -9.362000000     0.014000000     2.060000000
O    -8.199000000    -3.715000000     1.940000000
H    -8.880000000    -3.522000000     2.584000000
H    -7.566000000    -3.004000000     2.040000000
O    -4.966000000     3.331000000    -2.185000000
H    -5.735000000     2.797000000    -1.989000000
H    -5.171000000     3.749000000    -3.021000000
O    -6.476000000     0.823000000    -2.147000000
H    -6.036000000     0.462000000    -2.917000000
H    -5.921000000     0.563000000    -1.412000000
O    -7.506000000     4.838000000     3.760000000
H    -7.960000000     3.997000000     3.817000000
H    -6.596000000     4.607000000     3.570000000
O    -5.444000000     4.909000000     0.379000000
H    -6.014000000     4.140000000     0.367000000
H    -4.557000000     4.549000000     0.402000000
O    -8.781000000     2.505000000     4.185000000
H    -8.318000000     1.718000000     4.471000000
H    -9.584000000     2.177000000     3.780000000
O    -4.721000000     4.059000000     4.741000000
H    -4.638000000     4.999000000     4.580000000
H    -4.406000000     3.650000000     3.936000000
O    -8.625000000    -0.390000000    -0.959000000
H    -8.582000000    -1.102000000    -1.597000000
H    -7.931000000     0.213000000    -1.227000000
O    -4.846000000     0.395000000     4.448000000
H    -4.463000000     0.121000000     3.615000000
H    -4.725000000     1.344000000     4.467000000
O    -3.883000000     2.634000000     2.380000000
H    -4.154000000     1.729000000     2.227000000
H    -3.648000000     2.963000000     1.513000000
O    -6.639000000    -3.132000000     5.120000000
H    -7.434000000    -2.677000000     5.397000000
H    -6.270000000    -2.575000000     4.435000000
O    -8.693000000     4.363000000    -1.146000000
H    -8.777000000     4.944000000    -0.390000000
H    -7.979000000     3.769000000    -0.914000000
O    -6.913000000     2.467000000     0.626000000
H    -6.290000000     1.920000000     0.147000000
H    -7.322000000     1.872000000     1.254000000
O    -7.311000000     0.317000000     5.261000000
H    -6.403000000     0.346000000     4.959000000
H    -7.441000000    -0.590000000     5.539000000
O    -6.524000000    -1.473000000     2.295000000
H    -5.644000000    -1.101000000     2.234000000
H    -7.102000000    -0.712000000     2.351000000
