215
-1458.36899
C     0.270000000     0.982000000     3.728000000
H     0.580000000     1.486000000     2.816000000
C     0.989000000    -0.119000000     4.200000000
C     0.399000000    -0.894000000     5.259000000
H     0.819000000    -1.857000000     5.536000000
C     2.214000000    -0.655000000     3.377000000
O     3.292000000     0.225000000     3.491000000
H     1.828000000    -0.675000000     2.347000000
O     2.570000000    -2.005000000     3.876000000
C     2.683000000    -2.941000000     2.875000000
C     1.539000000    -3.667000000     2.625000000
H     0.707000000    -3.567000000     3.318000000
C     1.500000000    -4.436000000     1.457000000
O     0.337000000    -5.104000000     1.127000000
C     2.518000000    -4.440000000     0.533000000
C     2.329000000    -5.045000000    -0.861000000
H     3.277000000    -5.303000000    -1.338000000
C     1.539000000    -4.123000000    -1.809000000
C     2.261000000    -3.430000000    -2.791000000
H     3.348000000    -3.431000000    -2.805000000
H     1.884000000    -6.033000000    -0.733000000
C     3.674000000    -3.675000000     0.828000000
H     4.434000000    -3.595000000     0.054000000
C     3.672000000    -2.829000000     1.912000000
C     4.825000000    -1.909000000     2.207000000
H     5.748000000    -2.373000000     1.853000000
H     4.957000000    -1.923000000     3.291000000
C     4.674000000    -0.510000000     1.637000000
C     4.951000000    -0.311000000     0.295000000
H     5.396000000    -1.098000000    -0.309000000
C     4.012000000     0.540000000     2.311000000
C     3.737000000     1.769000000     1.715000000
H     3.082000000     2.491000000     2.196000000
C     4.030000000     1.913000000     0.342000000
O     3.675000000     3.184000000    -0.241000000
C     2.546000000     3.333000000    -1.146000000
C     1.743000000     4.530000000    -0.906000000
C     1.288000000     5.286000000    -1.994000000
H     1.451000000     5.048000000    -3.042000000
C     1.485000000     4.965000000     0.403000000
H     1.988000000     4.432000000     1.206000000
O     3.082000000     3.246000000    -2.426000000
H     1.922000000     2.447000000    -0.962000000
C     4.735000000     0.935000000    -0.352000000
C     5.139000000     1.189000000    -1.789000000
H     5.973000000     0.501000000    -1.942000000
H     5.627000000     2.154000000    -1.939000000
C     4.006000000     1.003000000    -2.851000000
C     3.831000000    -0.237000000    -3.501000000
H     4.358000000    -1.154000000    -3.251000000
C     3.103000000     2.059000000    -3.150000000
C     1.979000000     1.789000000    -3.844000000
H     1.217000000     2.562000000    -3.916000000
C     1.677000000     0.570000000    -4.386000000
O     0.434000000     0.321000000    -4.968000000
C    -0.462000000    -0.327000000    -4.010000000
C    -1.748000000     0.471000000    -3.998000000
C    -1.828000000     1.840000000    -4.396000000
H    -0.884000000     2.344000000    -4.587000000
C    -2.973000000    -0.174000000    -3.613000000
H    -2.999000000    -1.222000000    -3.325000000
O    -0.575000000    -1.699000000    -4.433000000
H     0.072000000    -0.299000000    -3.049000000
C     2.611000000    -0.460000000    -4.233000000
C     2.353000000    -1.850000000    -4.702000000
H     3.293000000    -2.396000000    -4.813000000
H     1.959000000    -1.824000000    -5.720000000
C     1.603000000    -2.660000000    -3.708000000
C     0.196000000    -2.654000000    -3.745000000
C    -0.475000000    -3.428000000    -2.832000000
H    -1.533000000    -3.185000000    -2.767000000
C     0.141000000    -4.190000000    -1.882000000
O    -0.673000000    -4.848000000    -1.002000000
C    -0.564000000    -4.291000000     0.370000000
H    -0.078000000    -3.306000000     0.315000000
C    -1.934000000    -4.089000000     0.970000000
C    -2.226000000    -4.451000000     2.299000000
H    -1.424000000    -4.824000000     2.932000000
C    -3.088000000    -3.590000000     0.301000000
H    -2.956000000    -3.138000000    -0.679000000
C    -4.319000000    -3.303000000     0.945000000
O    -5.394000000    -2.755000000     0.342000000
C    -4.504000000    -3.629000000     2.282000000
H    -5.461000000    -3.552000000     2.792000000
C    -3.450000000    -4.247000000     2.972000000
O    -3.606000000    -4.718000000     4.326000000
C    -2.755000000    -4.256000000     5.336000000
C    -2.313000000    -2.957000000     5.485000000
H    -2.647000000    -2.167000000     4.817000000
C    -2.339000000    -5.242000000     6.243000000
H    -2.555000000    -6.293000000     6.066000000
C    -1.414000000    -4.922000000     7.245000000
H    -1.003000000    -5.745000000     7.823000000
C    -0.973000000    -3.592000000     7.390000000
H    -0.376000000    -3.247000000     8.230000000
C    -1.505000000    -2.634000000     6.579000000
O    -1.333000000    -1.280000000     6.832000000
C    -0.753000000    -0.442000000     5.865000000
C    -1.444000000     0.725000000     5.512000000
H    -2.336000000     1.058000000     6.035000000
C    -0.852000000     1.460000000     4.468000000
O    -1.450000000     2.679000000     4.105000000
C    -0.674000000     3.852000000     4.117000000
C    -0.505000000     4.621000000     2.978000000
H    -1.049000000     4.364000000     2.073000000
C     0.073000000     4.186000000     5.229000000
H     0.009000000     3.622000000     6.156000000
C     0.965000000     5.291000000     5.271000000
H     1.534000000     5.560000000     6.157000000
C     1.102000000     6.051000000     4.083000000
H     1.541000000     7.044000000     4.125000000
C     0.448000000     5.675000000     2.924000000
O     0.488000000     6.486000000     1.862000000
C     0.606000000     6.036000000     0.622000000
C     0.112000000     6.719000000    -0.477000000
H    -0.596000000     7.536000000    -0.363000000
C     0.513000000     6.422000000    -1.730000000
O    -0.113000000     7.132000000    -2.709000000
C    -0.666000000     6.413000000    -3.780000000
C    -1.662000000     5.507000000    -3.666000000
H    -2.212000000     5.489000000    -2.728000000
C    -0.092000000     6.623000000    -5.006000000
H     0.686000000     7.371000000    -5.135000000
C    -0.477000000     5.909000000    -6.137000000
H    -0.011000000     6.012000000    -7.114000000
C    -1.535000000     4.969000000    -6.006000000
H    -1.732000000     4.351000000    -6.878000000
C    -2.074000000     4.746000000    -4.756000000
O    -3.124000000     3.889000000    -4.655000000
C    -3.027000000     2.488000000    -4.362000000
C    -4.198000000     1.817000000    -4.139000000
H    -5.114000000     2.402000000    -4.126000000
C    -4.200000000     0.483000000    -3.735000000
O    -5.417000000    -0.043000000    -3.444000000
C    -5.510000000    -1.310000000    -2.989000000
C    -5.912000000    -2.361000000    -3.794000000
H    -6.209000000    -2.191000000    -4.826000000
C    -6.110000000    -3.638000000    -3.259000000
H    -6.390000000    -4.522000000    -3.825000000
C    -5.824000000    -3.797000000    -1.894000000
H    -5.958000000    -4.760000000    -1.408000000
C    -5.480000000    -2.696000000    -1.055000000
C    -5.367000000    -1.444000000    -1.601000000
H    -5.237000000    -0.550000000    -0.997000000
C    -1.557000000     0.926000000    -0.496000000
H    -1.912000000     1.729000000    -1.137000000
C    -0.292000000     0.395000000    -0.583000000
H     0.499000000     0.738000000    -1.245000000
C     0.045000000    -0.633000000     0.271000000
H     1.058000000    -1.179000000     0.310000000
C    -0.886000000    -0.997000000     1.223000000
H    -0.699000000    -1.815000000     1.914000000
C    -2.109000000    -0.424000000     1.364000000
H    -2.792000000    -0.773000000     2.135000000
C    -2.466000000     0.522000000     0.409000000
C    -3.797000000     1.177000000     0.454000000
O    -4.542000000     0.953000000     1.363000000
O    -4.062000000     2.107000000    -0.254000000
O    -4.307000000     2.658000000     3.503000000
H    -4.365000000     2.130000000     2.706000000
H    -3.433000000     2.475000000     3.848000000
O    -7.860000000     4.977000000    -2.956000000
H    -8.339000000     5.805000000    -2.987000000
H    -6.985000000     5.195000000    -3.278000000
O    -2.998000000     7.553000000     2.330000000
H    -2.967000000     7.501000000     3.285000000
H    -3.522000000     6.797000000     2.065000000
O    -5.449000000     5.548000000    -4.596000000
H    -5.871000000     4.968000000    -5.230000000
H    -4.862000000     4.976000000    -4.101000000
O    -6.557000000     1.617000000    -1.269000000
H    -5.639000000     1.736000000    -1.025000000
H    -6.528000000     1.051000000    -2.040000000
O    -8.326000000     4.720000000     0.029000000
H    -7.822000000     4.086000000     0.539000000
H    -8.087000000     4.540000000    -0.880000000
O    -6.656000000     5.874000000     2.960000000
H    -7.009000000     5.268000000     2.308000000
H    -6.811000000     6.742000000     2.589000000
O    -9.190000000    -1.647000000    -0.345000000
H    -8.861000000    -1.659000000    -1.244000000
H    -9.615000000    -0.794000000    -0.258000000
O    -6.508000000     0.101000000     2.780000000
H    -6.958000000     0.942000000     2.693000000
H    -5.752000000     0.173000000     2.196000000
O    -4.261000000     4.867000000    -0.755000000
H    -4.110000000     5.227000000     0.119000000
H    -4.305000000     3.920000000    -0.619000000
O    -9.383000000     2.642000000    -1.839000000
H    -8.468000000     2.475000000    -1.611000000
H    -9.341000000     3.311000000    -2.523000000
O    -6.033000000     2.486000000     5.548000000
H    -5.764000000     3.402000000     5.482000000
H    -5.721000000     2.085000000     4.737000000
O    -9.323000000     0.741000000     1.855000000
H   -10.235000000     1.010000000     1.749000000
H    -9.135000000     0.894000000     2.781000000
O    -6.070000000    -0.758000000     5.306000000
H    -6.261000000    -0.492000000     4.406000000
H    -6.309000000    -1.685000000     5.337000000
O    -4.203000000     4.915000000     1.998000000
H    -4.037000000     4.017000000     2.286000000
H    -5.105000000     5.090000000     2.266000000
O    -6.830000000     2.798000000     1.239000000
H    -7.485000000     2.256000000     0.801000000
H    -5.990000000     2.424000000     0.972000000
O    -8.612000000     0.253000000    -3.635000000
H    -9.148000000    -0.539000000    -3.607000000
H    -9.220000000     0.962000000    -3.424000000
O    -8.655000000     1.387000000     4.557000000
H    -8.960000000     0.975000000     5.365000000
H    -7.739000000     1.605000000     4.730000000
O    -8.160000000    -1.941000000     2.074000000
H    -8.560000000    -1.343000000     1.442000000
H    -7.448000000    -1.435000000     2.465000000
