215
-1462.75929
C     1.036000000     1.301000000     4.259000000
H     1.306000000     2.006000000     3.476000000
C     1.699000000     0.088000000     4.432000000
C     1.268000000    -0.798000000     5.443000000
H     1.774000000    -1.748000000     5.599000000
C     2.748000000    -0.353000000     3.476000000
O     3.793000000     0.575000000     3.366000000
H     2.221000000    -0.329000000     2.510000000
O     3.186000000    -1.697000000     3.769000000
C     3.118000000    -2.549000000     2.759000000
C     2.047000000    -3.412000000     2.679000000
H     1.431000000    -3.514000000     3.569000000
C     1.789000000    -4.064000000     1.425000000
O     0.585000000    -4.761000000     1.272000000
C     2.748000000    -3.990000000     0.376000000
C     2.641000000    -4.830000000    -0.822000000
H     3.623000000    -5.054000000    -1.245000000
C     1.773000000    -4.157000000    -1.885000000
C     2.359000000    -3.399000000    -2.882000000
H     3.421000000    -3.355000000    -3.114000000
H     2.241000000    -5.808000000    -0.546000000
C     3.852000000    -3.163000000     0.534000000
H     4.651000000    -3.128000000    -0.203000000
C     4.129000000    -2.483000000     1.725000000
C     5.283000000    -1.440000000     1.756000000
H     6.111000000    -1.849000000     1.172000000
H     5.670000000    -1.391000000     2.776000000
C     4.901000000    -0.141000000     1.229000000
C     5.143000000     0.194000000    -0.106000000
H     5.532000000    -0.583000000    -0.759000000
C     4.275000000     0.827000000     2.049000000
C     3.907000000     2.046000000     1.581000000
H     3.343000000     2.649000000     2.288000000
C     4.130000000     2.407000000     0.243000000
O     3.557000000     3.542000000    -0.284000000
C     2.281000000     3.504000000    -1.037000000
C     1.318000000     4.687000000    -0.720000000
C     0.445000000     5.207000000    -1.655000000
H     0.500000000     4.924000000    -2.703000000
C     1.178000000     5.177000000     0.547000000
H     1.906000000     4.962000000     1.325000000
O     2.555000000     3.510000000    -2.443000000
H     1.762000000     2.563000000    -0.800000000
C     4.770000000     1.450000000    -0.595000000
C     4.882000000     1.700000000    -2.118000000
H     5.704000000     1.014000000    -2.332000000
H     5.159000000     2.717000000    -2.405000000
C     3.595000000     1.348000000    -2.862000000
C     3.523000000     0.042000000    -3.446000000
H     4.309000000    -0.704000000    -3.358000000
C     2.620000000     2.301000000    -3.101000000
C     1.486000000     1.950000000    -3.840000000
H     0.733000000     2.693000000    -4.088000000
C     1.331000000     0.643000000    -4.285000000
O     0.097000000     0.314000000    -4.752000000
C    -0.728000000    -0.534000000    -3.953000000
C    -2.148000000     0.000000000    -4.187000000
C    -2.398000000     1.388000000    -4.335000000
H    -1.547000000     2.056000000    -4.435000000
C    -3.278000000    -0.860000000    -4.212000000
H    -3.099000000    -1.928000000    -4.113000000
O    -0.634000000    -1.897000000    -4.462000000
H    -0.473000000    -0.376000000    -2.894000000
C     2.343000000    -0.326000000    -4.159000000
C     2.126000000    -1.678000000    -4.774000000
H     3.016000000    -2.022000000    -5.304000000
H     1.498000000    -1.595000000    -5.663000000
C     1.554000000    -2.639000000    -3.754000000
C     0.152000000    -2.709000000    -3.673000000
C    -0.422000000    -3.440000000    -2.687000000
H    -1.502000000    -3.548000000    -2.625000000
C     0.394000000    -4.151000000    -1.766000000
O    -0.339000000    -4.857000000    -0.832000000
C    -0.436000000    -4.227000000     0.451000000
H    -0.193000000    -3.195000000     0.157000000
C    -1.828000000    -4.308000000     1.030000000
C    -1.989000000    -4.140000000     2.360000000
H    -1.146000000    -4.464000000     2.964000000
C    -2.899000000    -4.010000000     0.141000000
H    -2.863000000    -4.047000000    -0.944000000
C    -4.140000000    -3.677000000     0.713000000
O    -5.271000000    -3.496000000    -0.026000000
C    -4.330000000    -3.606000000     2.130000000
H    -5.291000000    -3.420000000     2.602000000
C    -3.234000000    -3.818000000     2.924000000
O    -3.326000000    -3.895000000     4.341000000
C    -2.222000000    -3.771000000     5.147000000
C    -1.777000000    -2.570000000     5.716000000
H    -2.295000000    -1.641000000     5.495000000
C    -1.617000000    -4.971000000     5.508000000
H    -1.850000000    -5.926000000     5.044000000
C    -0.633000000    -4.928000000     6.530000000
H    -0.318000000    -5.837000000     7.035000000
C    -0.096000000    -3.717000000     6.959000000
H     0.769000000    -3.783000000     7.615000000
C    -0.713000000    -2.511000000     6.592000000
O    -0.249000000    -1.365000000     7.138000000
C     0.200000000    -0.431000000     6.297000000
C    -0.427000000     0.809000000     6.095000000
H    -1.304000000     1.185000000     6.617000000
C    -0.018000000     1.650000000     5.093000000
O    -0.714000000     2.771000000     4.932000000
C    -0.127000000     3.973000000     4.741000000
C    -0.238000000     4.615000000     3.503000000
H    -0.805000000     4.133000000     2.712000000
C     0.569000000     4.660000000     5.770000000
H     0.595000000     4.259000000     6.780000000
C     1.149000000     5.883000000     5.568000000
H     1.654000000     6.393000000     6.384000000
C     1.033000000     6.514000000     4.318000000
H     1.416000000     7.520000000     4.166000000
C     0.287000000     5.930000000     3.323000000
O     0.010000000     6.678000000     2.100000000
C     0.187000000     6.106000000     0.869000000
C    -0.596000000     6.650000000    -0.121000000
H    -1.258000000     7.455000000     0.189000000
C    -0.605000000     6.134000000    -1.375000000
O    -1.396000000     6.647000000    -2.390000000
C    -1.680000000     5.923000000    -3.540000000
C    -2.628000000     4.917000000    -3.427000000
H    -3.167000000     4.745000000    -2.499000000
C    -1.224000000     6.398000000    -4.770000000
H    -0.531000000     7.231000000    -4.857000000
C    -1.654000000     5.764000000    -5.937000000
H    -1.347000000     6.045000000    -6.941000000
C    -2.494000000     4.585000000    -5.823000000
H    -2.767000000     4.004000000    -6.701000000
C    -2.963000000     4.179000000    -4.569000000
O    -3.923000000     3.241000000    -4.453000000
C    -3.701000000     1.855000000    -4.402000000
C    -4.816000000     1.052000000    -4.375000000
H    -5.843000000     1.399000000    -4.303000000
C    -4.556000000    -0.326000000    -4.226000000
O    -5.689000000    -1.073000000    -4.153000000
C    -5.694000000    -2.244000000    -3.374000000
C    -6.160000000    -3.461000000    -3.974000000
H    -6.483000000    -3.427000000    -5.012000000
C    -6.197000000    -4.697000000    -3.286000000
H    -6.532000000    -5.601000000    -3.789000000
C    -5.802000000    -4.649000000    -1.935000000
H    -5.816000000    -5.594000000    -1.397000000
C    -5.341000000    -3.487000000    -1.351000000
C    -5.417000000    -2.248000000    -2.010000000
H    -5.267000000    -1.294000000    -1.511000000
C    -2.411000000     1.448000000    -0.475000000
H    -3.037000000     2.019000000    -1.155000000
C    -1.020000000     1.341000000    -0.733000000
H    -0.711000000     1.868000000    -1.632000000
C    -0.126000000     0.546000000     0.001000000
H     0.937000000     0.415000000    -0.336000000
C    -0.691000000    -0.100000000     1.077000000
H     0.004000000    -0.635000000     1.720000000
C    -2.064000000    -0.110000000     1.356000000
H    -2.455000000    -0.618000000     2.234000000
C    -2.922000000     0.758000000     0.607000000
C    -4.461000000     0.810000000     0.880000000
O    -5.014000000     0.194000000     1.762000000
O    -5.189000000     1.558000000     0.224000000
O    -4.891000000     6.707000000     2.810000000
H    -3.987000000     7.021000000     2.819000000
H    -5.341000000     7.292000000     2.200000000
O    -4.510000000    -0.983000000     4.182000000
H    -4.814000000    -0.940000000     3.275000000
H    -4.384000000    -0.069000000     4.435000000
O    -7.990000000     4.335000000    -0.722000000
H    -7.154000000     4.483000000    -0.279000000
H    -7.807000000     3.635000000    -1.349000000
O    -6.089000000     2.697000000    -1.934000000
H    -5.952000000     2.301000000    -1.074000000
H    -5.551000000     3.489000000    -1.922000000
O    -3.863000000     1.357000000     5.667000000
H    -4.631000000     1.926000000     5.610000000
H    -3.655000000     1.329000000     6.601000000
O    -8.432000000     4.937000000     3.070000000
H    -7.885000000     5.219000000     3.803000000
H    -7.960000000     4.196000000     2.691000000
O    -8.882000000    -3.268000000    -2.515000000
H    -9.014000000    -3.929000000    -3.195000000
H    -7.932000000    -3.158000000    -2.471000000
O    -9.716000000    -2.024000000     1.233000000
H   -10.308000000    -1.443000000     1.710000000
H    -9.112000000    -1.432000000     0.783000000
O    -7.575000000     0.066000000     2.521000000
H    -7.941000000     0.936000000     2.682000000
H    -6.728000000     0.236000000     2.109000000
O    -4.428000000     4.170000000    -0.074000000
H    -3.813000000     4.327000000     0.643000000
H    -4.811000000     3.315000000     0.122000000
O    -7.315000000    -0.518000000    -0.294000000
H    -7.032000000    -0.850000000     0.559000000
H    -6.584000000     0.023000000    -0.594000000
O    -6.465000000     2.710000000     5.145000000
H    -6.274000000     2.635000000     4.210000000
H    -6.787000000     3.605000000     5.252000000
O    -4.897000000     7.000000000    -0.177000000
H    -4.612000000     7.430000000    -0.984000000
H    -4.763000000     6.067000000    -0.343000000
O    -8.740000000     1.950000000    -4.638000000
H    -8.436000000     2.192000000    -3.763000000
H    -8.952000000     1.020000000    -4.569000000
O    -5.654000000    -2.803000000     5.752000000
H    -5.052000000    -2.320000000     5.186000000
H    -6.514000000    -2.673000000     5.354000000
O    -3.285000000     3.569000000     2.858000000
H    -3.272000000     3.690000000     3.807000000
H    -2.911000000     2.699000000     2.723000000
O    -6.826000000     3.220000000     1.775000000
H    -6.491000000     4.115000000     1.727000000
H    -6.275000000     2.725000000     1.169000000
O    -8.227000000     1.089000000     6.583000000
H    -8.953000000     1.648000000     6.304000000
H    -7.454000000     1.481000000     6.176000000
O    -7.911000000    -2.179000000     4.191000000
H    -8.243000000    -2.800000000     3.542000000
H    -7.697000000    -1.396000000     3.684000000
