215
-1449.61424
C     1.041000000     2.555000000     4.212000000
H     1.507000000     3.406000000     3.723000000
C     1.548000000     1.262000000     3.895000000
C     1.116000000     0.190000000     4.632000000
H     1.412000000    -0.800000000     4.295000000
C     2.615000000     1.241000000     2.757000000
O     3.388000000     2.390000000     2.690000000
H     2.155000000     1.049000000     1.777000000
O     3.421000000     0.125000000     3.100000000
C     3.693000000    -0.753000000     2.061000000
C     3.138000000    -2.022000000     2.151000000
H     2.531000000    -2.337000000     2.997000000
C     3.319000000    -3.018000000     1.129000000
O     2.526000000    -4.147000000     1.052000000
C     4.031000000    -2.639000000    -0.005000000
C     4.229000000    -3.553000000    -1.222000000
H     5.174000000    -3.412000000    -1.752000000
C     3.004000000    -3.269000000    -2.119000000
C     3.102000000    -2.326000000    -3.167000000
H     4.002000000    -1.809000000    -3.492000000
H     4.330000000    -4.580000000    -0.865000000
C     4.534000000    -1.376000000    -0.116000000
H     5.065000000    -1.070000000    -1.014000000
C     4.442000000    -0.496000000     0.939000000
C     5.184000000     0.821000000     0.956000000
H     5.951000000     0.933000000     0.187000000
H     5.655000000     1.004000000     1.924000000
C     4.261000000     1.938000000     0.445000000
C     4.271000000     2.161000000    -0.972000000
H     4.756000000     1.601000000    -1.767000000
C     3.504000000     2.733000000     1.378000000
C     2.743000000     3.755000000     0.845000000
H     2.087000000     4.284000000     1.532000000
C     2.667000000     3.971000000    -0.556000000
O     1.699000000     4.830000000    -1.095000000
C     0.500000000     4.182000000    -1.569000000
C    -0.810000000     4.707000000    -0.938000000
C    -2.049000000     4.239000000    -1.415000000
H    -2.101000000     3.454000000    -2.165000000
C    -0.726000000     5.387000000     0.253000000
H     0.200000000     5.684000000     0.738000000
O     0.511000000     4.219000000    -3.007000000
H     0.666000000     3.176000000    -1.157000000
C     3.439000000     3.204000000    -1.439000000
C     3.345000000     3.407000000    -2.960000000
H     4.252000000     3.093000000    -3.479000000
H     3.312000000     4.485000000    -3.134000000
C     2.226000000     2.610000000    -3.556000000
C     2.597000000     1.308000000    -4.003000000
H     3.658000000     1.084000000    -3.930000000
C     0.890000000     3.021000000    -3.623000000
C    -0.037000000     2.111000000    -4.146000000
H    -1.064000000     2.437000000    -4.289000000
C     0.327000000     0.815000000    -4.421000000
O    -0.728000000    -0.054000000    -4.721000000
C    -0.946000000    -1.186000000    -3.869000000
C    -2.484000000    -1.300000000    -3.667000000
C    -3.334000000    -0.338000000    -4.153000000
H    -3.070000000     0.552000000    -4.718000000
C    -2.994000000    -2.340000000    -2.909000000
H    -2.366000000    -3.095000000    -2.443000000
O    -0.381000000    -2.363000000    -4.440000000
H    -0.472000000    -1.014000000    -2.891000000
C     1.677000000     0.393000000    -4.451000000
C     2.108000000    -1.006000000    -4.995000000
H     3.096000000    -1.050000000    -5.459000000
H     1.396000000    -1.222000000    -5.794000000
C     2.021000000    -2.139000000    -4.047000000
C     0.810000000    -2.797000000    -3.841000000
C     0.775000000    -3.769000000    -2.887000000
H    -0.206000000    -4.203000000    -2.709000000
C     1.812000000    -3.994000000    -2.016000000
O     1.560000000    -4.877000000    -0.944000000
C     1.321000000    -4.186000000     0.306000000
H     0.997000000    -3.161000000     0.071000000
C     0.150000000    -4.728000000     1.194000000
C     0.124000000    -4.589000000     2.600000000
H     1.030000000    -4.206000000     3.062000000
C    -0.854000000    -5.471000000     0.589000000
H    -0.821000000    -5.676000000    -0.478000000
C    -1.908000000    -6.041000000     1.369000000
O    -2.856000000    -6.753000000     0.764000000
C    -1.858000000    -5.872000000     2.748000000
H    -2.717000000    -6.202000000     3.326000000
C    -0.785000000    -5.180000000     3.394000000
O    -0.642000000    -5.139000000     4.731000000
C     0.186000000    -4.244000000     5.474000000
C    -0.270000000    -2.910000000     5.582000000
H    -1.193000000    -2.590000000     5.106000000
C     1.327000000    -4.633000000     6.119000000
H     1.739000000    -5.629000000     5.981000000
C     2.120000000    -3.690000000     6.750000000
H     3.095000000    -3.981000000     7.132000000
C     1.648000000    -2.377000000     6.886000000
H     2.184000000    -1.682000000     7.528000000
C     0.406000000    -1.920000000     6.332000000
O    -0.059000000    -0.664000000     6.541000000
C     0.284000000     0.377000000     5.736000000
C    -0.171000000     1.650000000     5.999000000
H    -0.702000000     1.783000000     6.939000000
C     0.140000000     2.746000000     5.288000000
O    -0.214000000     4.019000000     5.769000000
C    -0.187000000     5.159000000     4.962000000
C    -1.053000000     5.247000000     3.885000000
H    -1.838000000     4.497000000     3.829000000
C     0.780000000     6.147000000     5.241000000
H     1.518000000     6.077000000     6.036000000
C     0.652000000     7.321000000     4.533000000
H     1.410000000     8.088000000     4.671000000
C    -0.142000000     7.345000000     3.345000000
H    -0.062000000     8.160000000     2.631000000
C    -1.031000000     6.309000000     3.021000000
O    -1.967000000     6.418000000     2.097000000
C    -1.960000000     5.745000000     0.928000000
C    -3.187000000     5.359000000     0.353000000
H    -4.165000000     5.631000000     0.742000000
C    -3.239000000     4.584000000    -0.785000000
O    -4.509000000     4.280000000    -1.320000000
C    -4.602000000     3.799000000    -2.603000000
C    -5.034000000     2.499000000    -2.787000000
H    -5.214000000     1.862000000    -1.925000000
C    -4.356000000     4.659000000    -3.700000000
H    -4.098000000     5.707000000    -3.576000000
C    -4.395000000     4.102000000    -4.977000000
H    -4.253000000     4.685000000    -5.883000000
C    -4.759000000     2.773000000    -5.141000000
H    -4.847000000     2.427000000    -6.168000000
C    -5.155000000     1.999000000    -4.110000000
O    -5.445000000     0.716000000    -4.352000000
C    -4.658000000    -0.339000000    -3.893000000
C    -5.219000000    -1.394000000    -3.201000000
H    -6.290000000    -1.362000000    -3.022000000
C    -4.383000000    -2.373000000    -2.656000000
O    -4.986000000    -3.385000000    -1.958000000
C    -4.464000000    -4.656000000    -1.843000000
C    -4.561000000    -5.527000000    -2.900000000
H    -5.191000000    -5.278000000    -3.750000000
C    -4.052000000    -6.815000000    -2.762000000
H    -4.133000000    -7.555000000    -3.555000000
C    -3.608000000    -7.283000000    -1.487000000
H    -3.331000000    -8.308000000    -1.254000000
C    -3.375000000    -6.363000000    -0.453000000
C    -3.910000000    -5.080000000    -0.638000000
H    -3.965000000    -4.393000000     0.203000000
C    -2.665000000    -0.190000000    -0.311000000
H    -3.483000000    -0.077000000    -1.017000000
C    -1.364000000     0.213000000    -0.730000000
H    -1.157000000     0.673000000    -1.693000000
C    -0.264000000    -0.145000000     0.046000000
H     0.786000000     0.037000000    -0.284000000
C    -0.437000000    -0.804000000     1.225000000
H     0.422000000    -1.095000000     1.823000000
C    -1.730000000    -1.179000000     1.649000000
H    -1.790000000    -1.752000000     2.571000000
C    -2.855000000    -0.887000000     0.893000000
C    -4.235000000    -1.451000000     1.194000000
O    -4.321000000    -2.290000000     2.091000000
O    -5.272000000    -0.933000000     0.865000000
O    -4.679000000     5.056000000     3.441000000
H    -5.520000000     4.716000000     3.746000000
H    -4.473000000     4.528000000     2.670000000
O    -7.631000000    -6.395000000     0.557000000
H    -7.405000000    -6.150000000    -0.341000000
H    -7.297000000    -5.676000000     1.092000000
O    -3.843000000    -2.359000000     4.680000000
H    -3.629000000    -3.276000000     4.853000000
H    -4.008000000    -2.326000000     3.738000000
O    -7.571000000     2.666000000     0.698000000
H    -8.277000000     2.631000000     1.343000000
H    -7.991000000     2.990000000    -0.099000000
O    -3.308000000     1.266000000     6.921000000
H    -3.738000000     1.168000000     6.071000000
H    -3.558000000     0.482000000     7.408000000
O   -10.051000000     0.918000000     2.323000000
H    -9.530000000     0.117000000     2.256000000
H   -10.602000000     0.911000000     1.540000000
O    -5.160000000    -1.088000000     6.814000000
H    -5.872000000    -0.662000000     6.338000000
H    -4.471000000    -1.205000000     6.160000000
O    -7.166000000     0.287000000     5.458000000
H    -7.527000000     0.987000000     4.913000000
H    -7.128000000    -0.473000000     4.877000000
O    -6.444000000    -1.446000000     3.401000000
H    -6.015000000    -1.247000000     2.568000000
H    -5.809000000    -1.981000000     3.876000000
O    -5.086000000     2.787000000     2.004000000
H    -4.205000000     2.546000000     1.718000000
H    -5.668000000     2.299000000     1.422000000
O    -7.351000000    -2.431000000    -0.339000000
H    -7.468000000    -2.789000000    -1.219000000
H    -6.698000000    -1.739000000    -0.447000000
O    -6.763000000     0.495000000    -0.608000000
H    -7.048000000     1.201000000    -0.028000000
H    -6.136000000    -0.006000000    -0.086000000
O    -6.997000000    -5.114000000     4.255000000
H    -7.875000000    -5.382000000     3.985000000
H    -6.695000000    -4.538000000     3.551000000
O    -6.251000000    -4.014000000     1.705000000
H    -5.562000000    -3.475000000     2.094000000
H    -6.519000000    -3.531000000     0.923000000
O    -2.332000000     2.016000000     2.008000000
H    -1.774000000     2.058000000     2.784000000
H    -1.781000000     1.610000000     1.339000000
O    -9.044000000    -1.921000000     2.455000000
H    -9.095000000    -2.394000000     1.625000000
H    -8.129000000    -2.008000000     2.724000000
O    -8.638000000     1.654000000    -2.492000000
H    -7.924000000     1.282000000    -1.974000000
H    -9.277000000     0.945000000    -2.563000000
O    -4.410000000     1.695000000     4.444000000
H    -3.484000000     1.671000000     4.204000000
H    -4.853000000     2.018000000     3.659000000
O    -4.294000000    -5.401000000     5.570000000
H    -4.970000000    -5.087000000     4.970000000
H    -4.580000000    -6.281000000     5.814000000
