215
-1446.65195
C     0.725000000     1.893000000     4.527000000
H     1.200000000     2.673000000     3.938000000
C     1.221000000     0.628000000     4.358000000
C     0.464000000    -0.439000000     4.960000000
H     0.641000000    -1.490000000     4.746000000
C     2.327000000     0.346000000     3.447000000
O     3.278000000     1.470000000     3.418000000
H     1.828000000     0.098000000     2.499000000
O     3.164000000    -0.833000000     3.906000000
C     3.411000000    -1.661000000     2.842000000
C     2.634000000    -2.832000000     2.688000000
H     1.753000000    -3.024000000     3.295000000
C     2.743000000    -3.618000000     1.575000000
O     1.752000000    -4.527000000     1.372000000
C     3.681000000    -3.313000000     0.565000000
C     3.833000000    -4.002000000    -0.822000000
H     4.895000000    -4.047000000    -1.071000000
C     2.878000000    -3.618000000    -1.875000000
C     3.313000000    -2.743000000    -2.847000000
H     4.322000000    -2.369000000    -2.691000000
H     3.767000000    -5.072000000    -0.616000000
C     4.476000000    -2.257000000     0.812000000
H     5.181000000    -1.924000000     0.054000000
C     4.426000000    -1.421000000     1.888000000
C     5.321000000    -0.144000000     1.876000000
H     6.196000000    -0.281000000     1.237000000
H     5.676000000     0.111000000     2.877000000
C     4.655000000     1.136000000     1.391000000
C     4.908000000     1.526000000     0.061000000
H     5.591000000     0.991000000    -0.593000000
C     3.673000000     1.856000000     2.160000000
C     2.979000000     2.902000000     1.534000000
H     2.253000000     3.436000000     2.141000000
C     3.215000000     3.162000000     0.219000000
O     2.356000000     4.126000000    -0.169000000
C     1.279000000     3.711000000    -1.027000000
C     0.050000000     4.582000000    -0.668000000
C    -0.792000000     4.918000000    -1.706000000
H    -0.595000000     4.640000000    -2.738000000
C    -0.205000000     5.176000000     0.578000000
H     0.431000000     5.023000000     1.446000000
O     1.610000000     3.917000000    -2.403000000
H     1.019000000     2.655000000    -0.864000000
C     4.147000000     2.453000000    -0.559000000
C     4.351000000     2.808000000    -2.033000000
H     5.328000000     2.391000000    -2.288000000
H     4.460000000     3.881000000    -2.208000000
C     3.302000000     2.192000000    -2.907000000
C     3.503000000     0.936000000    -3.500000000
H     4.494000000     0.523000000    -3.333000000
C     2.081000000     2.812000000    -3.108000000
C     1.132000000     2.125000000    -3.794000000
H     0.213000000     2.704000000    -3.797000000
C     1.349000000     0.961000000    -4.508000000
O     0.278000000     0.196000000    -4.871000000
C    -0.335000000    -0.733000000    -3.905000000
C    -1.854000000    -0.548000000    -3.943000000
C    -2.464000000     0.713000000    -3.949000000
H    -1.823000000     1.591000000    -3.924000000
C    -2.689000000    -1.656000000    -4.042000000
H    -2.179000000    -2.616000000    -4.033000000
O     0.106000000    -2.011000000    -4.381000000
H     0.090000000    -0.566000000    -2.904000000
C     2.506000000     0.250000000    -4.207000000
C     2.854000000    -1.137000000    -4.753000000
H     3.925000000    -1.109000000    -4.967000000
H     2.348000000    -1.349000000    -5.697000000
C     2.417000000    -2.187000000    -3.724000000
C     1.055000000    -2.553000000    -3.648000000
C     0.571000000    -3.410000000    -2.704000000
H    -0.484000000    -3.656000000    -2.616000000
C     1.488000000    -3.926000000    -1.756000000
O     1.011000000    -4.791000000    -0.835000000
C     0.732000000    -4.234000000     0.390000000
H     0.725000000    -3.137000000     0.317000000
C    -0.672000000    -4.704000000     0.954000000
C    -0.923000000    -4.704000000     2.326000000
H    -0.169000000    -4.380000000     3.039000000
C    -1.687000000    -5.009000000     0.052000000
H    -1.576000000    -5.107000000    -1.025000000
C    -3.001000000    -5.234000000     0.553000000
O    -4.067000000    -5.546000000    -0.299000000
C    -3.291000000    -5.148000000     1.884000000
H    -4.304000000    -5.333000000     2.234000000
C    -2.288000000    -4.836000000     2.758000000
O    -2.583000000    -5.015000000     4.077000000
C    -1.887000000    -4.472000000     5.053000000
C    -1.997000000    -3.131000000     5.274000000
H    -2.643000000    -2.465000000     4.708000000
C    -0.959000000    -5.288000000     5.704000000
H    -0.865000000    -6.358000000     5.535000000
C    -0.127000000    -4.656000000     6.609000000
H     0.688000000    -5.180000000     7.103000000
C    -0.206000000    -3.301000000     6.879000000
H     0.473000000    -2.940000000     7.647000000
C    -1.142000000    -2.498000000     6.219000000
O    -1.350000000    -1.134000000     6.448000000
C    -0.644000000    -0.186000000     5.746000000
C    -1.034000000     1.108000000     6.012000000
H    -1.811000000     1.331000000     6.739000000
C    -0.396000000     2.180000000     5.363000000
O    -0.711000000     3.423000000     5.694000000
C    -0.553000000     4.551000000     4.984000000
C    -0.964000000     4.796000000     3.674000000
H    -1.576000000     4.059000000     3.160000000
C    -0.028000000     5.596000000     5.757000000
H     0.338000000     5.394000000     6.760000000
C    -0.018000000     6.876000000     5.264000000
H     0.350000000     7.741000000     5.809000000
C    -0.540000000     7.186000000     4.002000000
H    -0.741000000     8.193000000     3.646000000
C    -1.041000000     6.166000000     3.243000000
O    -1.512000000     6.493000000     2.020000000
C    -1.330000000     5.940000000     0.803000000
C    -2.140000000     6.324000000    -0.245000000
H    -2.979000000     7.006000000    -0.135000000
C    -1.827000000     5.801000000    -1.496000000
O    -2.620000000     6.214000000    -2.564000000
C    -3.096000000     5.396000000    -3.559000000
C    -3.536000000     4.103000000    -3.198000000
H    -3.604000000     3.862000000    -2.141000000
C    -3.112000000     5.930000000    -4.875000000
H    -2.625000000     6.886000000    -5.047000000
C    -3.510000000     4.976000000    -5.846000000
H    -3.497000000     5.369000000    -6.860000000
C    -3.907000000     3.691000000    -5.551000000
H    -4.322000000     3.076000000    -6.345000000
C    -3.984000000     3.279000000    -4.251000000
O    -4.466000000     2.049000000    -3.885000000
C    -3.837000000     0.798000000    -3.819000000
C    -4.649000000    -0.292000000    -3.767000000
H    -5.733000000    -0.212000000    -3.726000000
C    -4.060000000    -1.558000000    -3.789000000
O    -4.921000000    -2.654000000    -3.830000000
C    -4.581000000    -3.923000000    -3.448000000
C    -4.208000000    -4.871000000    -4.397000000
H    -4.332000000    -4.549000000    -5.428000000
C    -3.809000000    -6.142000000    -3.917000000
H    -3.476000000    -6.969000000    -4.537000000
C    -3.776000000    -6.339000000    -2.539000000
H    -3.468000000    -7.294000000    -2.119000000
C    -4.125000000    -5.329000000    -1.641000000
C    -4.423000000    -4.067000000    -2.110000000
H    -4.759000000    -3.267000000    -1.455000000
C    -3.634000000     1.579000000    -0.234000000
H    -4.473000000     2.267000000    -0.177000000
C    -2.348000000     2.062000000    -0.004000000
H    -2.113000000     3.110000000     0.166000000
C    -1.246000000     1.159000000     0.094000000
H    -0.227000000     1.608000000     0.265000000
C    -1.437000000    -0.213000000    -0.280000000
H    -0.565000000    -0.852000000    -0.394000000
C    -2.731000000    -0.721000000    -0.407000000
H    -2.926000000    -1.777000000    -0.577000000
C    -3.830000000     0.175000000    -0.382000000
C    -5.238000000    -0.282000000    -0.260000000
O    -5.470000000    -1.447000000    -0.031000000
O    -6.137000000     0.482000000    -0.504000000
O    -6.460000000     3.729000000     2.323000000
H    -6.597000000     4.010000000     3.228000000
H    -6.879000000     2.871000000     2.272000000
O    -7.069000000    -4.239000000     3.738000000
H    -6.817000000    -4.514000000     2.856000000
H    -7.629000000    -4.946000000     4.058000000
O    -5.281000000    -1.483000000     2.629000000
H    -4.343000000    -1.407000000     2.803000000
H    -5.349000000    -1.481000000     1.674000000
O    -8.951000000    -1.987000000    -5.119000000
H    -8.509000000    -1.543000000    -4.396000000
H    -8.247000000    -2.426000000    -5.597000000
O    -4.150000000     2.411000000     3.281000000
H    -3.914000000     2.805000000     4.121000000
H    -4.934000000     2.886000000     3.005000000
O    -8.041000000    -0.603000000    -2.336000000
H    -7.428000000    -0.044000000    -1.859000000
H    -8.238000000    -0.116000000    -3.136000000
O   -11.000000000    -0.489000000     1.088000000
H   -11.030000000     0.186000000     0.410000000
H   -10.280000000    -0.222000000     1.659000000
O    -8.197000000    -1.449000000     2.262000000
H    -7.308000000    -1.734000000     2.050000000
H    -8.623000000    -2.233000000     2.609000000
O    -7.431000000     1.225000000     2.020000000
H    -7.388000000     0.324000000     2.340000000
H    -7.154000000     1.168000000     1.106000000
O    -7.511000000    -2.811000000    -0.909000000
H    -6.688000000    -2.546000000    -0.497000000
H    -7.806000000    -2.031000000    -1.378000000
O    -8.509000000    -4.766000000    -2.805000000
H    -8.242000000    -4.005000000    -2.290000000
H    -8.888000000    -5.368000000    -2.164000000
O    -9.074000000     2.134000000     4.102000000
H    -8.625000000     1.682000000     3.388000000
H    -9.217000000     3.021000000     3.771000000
O    -6.609000000     2.732000000    -1.917000000
H    -6.021000000     2.545000000    -2.648000000
H    -6.490000000     1.994000000    -1.319000000
O   -10.545000000     0.800000000    -1.564000000
H   -11.085000000     0.929000000    -2.343000000
H    -9.945000000     0.094000000    -1.801000000
O    -6.787000000    -4.862000000     0.870000000
H    -6.123000000    -5.227000000     0.285000000
H    -7.099000000    -4.078000000     0.418000000
O    -2.456000000    -0.679000000     2.752000000
H    -2.224000000    -0.765000000     1.827000000
H    -2.326000000     0.249000000     2.946000000
O    -9.131000000     3.088000000    -0.972000000
H    -8.298000000     2.943000000    -1.420000000
H    -9.734000000     2.467000000    -1.382000000
O    -5.060000000     0.244000000     4.748000000
H    -4.405000000     0.852000000     4.405000000
H    -5.216000000    -0.370000000     4.031000000
O    -4.992000000     4.594000000    -0.146000000
H    -4.983000000     4.294000000     0.763000000
H    -5.911000000     4.537000000    -0.408000000
