215
-1448.64803
C     0.670000000     1.824000000     4.881000000
H     1.298000000     2.642000000     4.537000000
C     1.061000000     0.498000000     4.557000000
C     0.343000000    -0.617000000     5.069000000
H     0.680000000    -1.645000000     4.958000000
C     2.236000000     0.279000000     3.666000000
O     3.093000000     1.435000000     3.629000000
H     1.833000000     0.250000000     2.642000000
O     3.039000000    -0.912000000     3.942000000
C     3.274000000    -1.745000000     2.892000000
C     2.411000000    -2.774000000     2.665000000
H     1.546000000    -3.001000000     3.284000000
C     2.484000000    -3.502000000     1.490000000
O     1.513000000    -4.352000000     1.278000000
C     3.517000000    -3.311000000     0.606000000
C     3.677000000    -4.139000000    -0.633000000
H     4.733000000    -4.147000000    -0.909000000
C     2.791000000    -3.501000000    -1.740000000
C     3.311000000    -2.610000000    -2.687000000
H     4.295000000    -2.150000000    -2.654000000
H     3.394000000    -5.171000000    -0.416000000
C     4.428000000    -2.269000000     0.886000000
H     5.216000000    -2.045000000     0.171000000
C     4.309000000    -1.457000000     2.008000000
C     5.182000000    -0.209000000     2.257000000
H     6.141000000    -0.488000000     1.814000000
H     5.392000000    -0.029000000     3.314000000
C     4.573000000     1.023000000     1.618000000
C     4.930000000     1.445000000     0.337000000
H     5.694000000     1.009000000    -0.301000000
C     3.598000000     1.761000000     2.327000000
C     3.000000000     2.871000000     1.733000000
H     2.232000000     3.426000000     2.266000000
C     3.343000000     3.250000000     0.431000000
O     2.663000000     4.281000000    -0.170000000
C     1.547000000     4.122000000    -1.064000000
C     0.308000000     4.964000000    -0.780000000
C    -0.526000000     5.461000000    -1.771000000
H    -0.217000000     5.258000000    -2.793000000
C    -0.065000000     5.248000000     0.554000000
H     0.522000000     4.762000000     1.330000000
O     1.953000000     4.090000000    -2.414000000
H     1.181000000     3.105000000    -0.863000000
C     4.276000000     2.491000000    -0.275000000
C     4.565000000     2.854000000    -1.725000000
H     5.522000000     2.533000000    -2.142000000
H     4.576000000     3.931000000    -1.909000000
C     3.501000000     2.261000000    -2.661000000
C     3.749000000     0.991000000    -3.287000000
H     4.658000000     0.419000000    -3.119000000
C     2.336000000     2.914000000    -3.000000000
C     1.344000000     2.333000000    -3.791000000
H     0.359000000     2.787000000    -3.873000000
C     1.539000000     1.081000000    -4.254000000
O     0.489000000     0.485000000    -4.874000000
C    -0.218000000    -0.599000000    -4.211000000
C    -1.758000000    -0.506000000    -4.410000000
C    -2.334000000     0.814000000    -4.364000000
H    -1.648000000     1.655000000    -4.414000000
C    -2.554000000    -1.631000000    -4.248000000
H    -2.071000000    -2.604000000    -4.213000000
O     0.283000000    -1.859000000    -4.556000000
H     0.034000000    -0.424000000    -3.155000000
C     2.754000000     0.390000000    -4.041000000
C     3.002000000    -0.977000000    -4.613000000
H     4.052000000    -1.191000000    -4.825000000
H     2.528000000    -0.958000000    -5.596000000
C     2.458000000    -2.057000000    -3.657000000
C     1.150000000    -2.495000000    -3.723000000
C     0.641000000    -3.425000000    -2.887000000
H    -0.420000000    -3.660000000    -2.863000000
C     1.459000000    -3.935000000    -1.885000000
O     1.004000000    -4.781000000    -0.965000000
C     0.544000000    -4.078000000     0.244000000
H     0.477000000    -3.013000000    -0.023000000
C    -0.882000000    -4.571000000     0.692000000
C    -1.186000000    -4.509000000     2.029000000
H    -0.603000000    -3.909000000     2.724000000
C    -1.741000000    -5.120000000    -0.258000000
H    -1.419000000    -5.232000000    -1.290000000
C    -3.005000000    -5.490000000     0.170000000
O    -3.950000000    -5.949000000    -0.717000000
C    -3.277000000    -5.609000000     1.546000000
H    -4.204000000    -6.033000000     1.922000000
C    -2.375000000    -5.101000000     2.449000000
O    -2.678000000    -5.240000000     3.790000000
C    -1.986000000    -4.684000000     4.837000000
C    -1.997000000    -3.302000000     5.030000000
H    -2.443000000    -2.654000000     4.281000000
C    -1.649000000    -5.437000000     5.926000000
H    -1.938000000    -6.485000000     5.943000000
C    -1.122000000    -4.885000000     7.120000000
H    -0.887000000    -5.548000000     7.949000000
C    -1.074000000    -3.485000000     7.261000000
H    -0.788000000    -3.058000000     8.219000000
C    -1.416000000    -2.679000000     6.176000000
O    -1.521000000    -1.346000000     6.445000000
C    -0.787000000    -0.345000000     5.846000000
C    -1.159000000     0.971000000     6.116000000
H    -1.982000000     1.087000000     6.816000000
C    -0.478000000     2.071000000     5.628000000
O    -0.849000000     3.334000000     6.075000000
C    -0.819000000     4.545000000     5.417000000
C    -1.361000000     4.732000000     4.137000000
H    -1.909000000     3.863000000     3.782000000
C    -0.157000000     5.591000000     6.029000000
H     0.251000000     5.402000000     7.019000000
C    -0.053000000     6.838000000     5.397000000
H     0.403000000     7.674000000     5.921000000
C    -0.578000000     6.949000000     4.107000000
H    -0.422000000     7.913000000     3.628000000
C    -1.230000000     5.924000000     3.448000000
O    -1.724000000     6.075000000     2.136000000
C    -1.195000000     5.887000000     0.873000000
C    -2.020000000     6.278000000    -0.189000000
H    -3.016000000     6.641000000     0.051000000
C    -1.679000000     6.121000000    -1.492000000
O    -2.555000000     6.278000000    -2.459000000
C    -2.777000000     5.460000000    -3.569000000
C    -3.457000000     4.209000000    -3.375000000
H    -3.969000000     3.849000000    -2.487000000
C    -2.384000000     5.951000000    -4.871000000
H    -1.785000000     6.857000000    -4.915000000
C    -2.543000000     5.124000000    -5.977000000
H    -1.980000000     5.378000000    -6.871000000
C    -3.147000000     3.880000000    -5.849000000
H    -3.190000000     3.168000000    -6.670000000
C    -3.647000000     3.458000000    -4.552000000
O    -4.337000000     2.225000000    -4.453000000
C    -3.660000000     0.980000000    -4.360000000
C    -4.520000000    -0.197000000    -4.254000000
H    -5.604000000    -0.162000000    -4.332000000
C    -3.908000000    -1.422000000    -4.094000000
O    -4.716000000    -2.489000000    -3.988000000
C    -4.342000000    -3.739000000    -3.594000000
C    -4.326000000    -4.655000000    -4.626000000
H    -4.443000000    -4.397000000    -5.675000000
C    -4.101000000    -6.039000000    -4.309000000
H    -4.107000000    -6.801000000    -5.083000000
C    -3.984000000    -6.409000000    -2.952000000
H    -3.929000000    -7.472000000    -2.734000000
C    -4.040000000    -5.467000000    -1.966000000
C    -4.264000000    -4.113000000    -2.238000000
H    -4.299000000    -3.419000000    -1.403000000
C    -3.076000000     1.390000000    -0.932000000
H    -3.833000000     2.169000000    -0.980000000
C    -1.779000000     1.798000000    -0.923000000
H    -1.526000000     2.849000000    -1.038000000
C    -0.739000000     0.834000000    -0.799000000
H     0.319000000     1.044000000    -1.082000000
C    -1.025000000    -0.521000000    -0.590000000
H    -0.198000000    -1.169000000    -0.311000000
C    -2.401000000    -0.946000000    -0.538000000
H    -2.673000000    -1.947000000    -0.213000000
C    -3.426000000     0.023000000    -0.709000000
C    -4.871000000    -0.440000000    -0.482000000
O    -5.086000000    -1.540000000     0.003000000
O    -5.812000000     0.300000000    -0.663000000
O    -4.308000000     2.155000000     2.945000000
H    -4.386000000     3.099000000     2.808000000
H    -5.167000000     1.807000000     2.705000000
O    -4.359000000    -2.416000000     2.729000000
H    -3.599000000    -1.835000000     2.713000000
H    -4.605000000    -2.515000000     1.809000000
O    -8.245000000    -0.298000000    -0.971000000
H    -7.354000000    -0.079000000    -0.698000000
H    -8.333000000     0.093000000    -1.840000000
O    -8.674000000     0.522000000    -3.662000000
H    -8.305000000     1.101000000    -4.329000000
H    -9.203000000    -0.105000000    -4.155000000
O    -7.455000000    -2.381000000     1.635000000
H    -6.866000000    -1.745000000     1.230000000
H    -7.215000000    -3.217000000     1.236000000
O    -6.589000000     1.162000000     1.619000000
H    -6.634000000     0.314000000     2.060000000
H    -6.206000000     0.967000000     0.764000000
O    -7.135000000    -2.666000000    -1.905000000
H    -6.514000000    -2.679000000    -1.177000000
H    -7.508000000    -1.785000000    -1.886000000
O    -8.769000000    -5.168000000    -1.381000000
H    -8.183000000    -4.462000000    -1.106000000
H    -9.647000000    -4.796000000    -1.299000000
O    -8.749000000     2.827000000     2.864000000
H    -8.097000000     2.396000000     2.312000000
H    -9.561000000     2.349000000     2.694000000
O    -6.631000000     2.573000000    -2.136000000
H    -6.958000000     2.446000000    -3.026000000
H    -6.124000000     1.782000000    -1.952000000
O    -9.758000000     0.983000000     0.607000000
H    -9.144000000     0.509000000     0.048000000
H   -10.078000000     0.325000000     1.225000000
O    -5.491000000    -3.541000000     4.794000000
H    -6.398000000    -3.606000000     4.495000000
H    -4.997000000    -3.300000000     4.010000000
O    -6.113000000    -4.585000000     0.561000000
H    -6.224000000    -5.528000000     0.678000000
H    -5.458000000    -4.505000000    -0.132000000
O    -2.751000000    -0.096000000     3.502000000
H    -3.314000000     0.677000000     3.455000000
H    -1.890000000     0.218000000     3.228000000
O    -8.830000000     3.352000000    -0.572000000
H    -8.164000000     3.092000000    -1.208000000
H    -8.914000000     2.595000000     0.009000000
O    -5.900000000    -0.176000000     4.423000000
H    -5.112000000    -0.639000000     4.139000000
H    -5.570000000     0.608000000     4.864000000
O    -7.579000000    -4.186000000    -4.348000000
H    -7.156000000    -3.780000000    -5.104000000
H    -7.159000000    -3.779000000    -3.590000000
O   -10.074000000    -2.848000000     1.907000000
H   -10.496000000    -2.007000000     2.084000000
H    -9.153000000    -2.629000000     1.767000000
O    -5.461000000     4.408000000    -0.155000000
H    -5.475000000     4.376000000     0.801000000
H    -4.911000000     3.668000000    -0.412000000
