215
-1453.39812
C     0.402000000     1.744000000     4.228000000
H     0.612000000     2.511000000     3.487000000
C     1.359000000     0.707000000     4.545000000
C     1.013000000    -0.268000000     5.511000000
H     1.680000000    -1.101000000     5.720000000
C     2.519000000     0.423000000     3.568000000
O     3.353000000     1.579000000     3.288000000
H     2.071000000    -0.002000000     2.657000000
O     3.372000000    -0.614000000     4.044000000
C     3.686000000    -1.569000000     3.125000000
C     2.887000000    -2.690000000     3.013000000
H     2.220000000    -2.854000000     3.855000000
C     2.885000000    -3.450000000     1.880000000
O     1.862000000    -4.326000000     1.676000000
C     3.768000000    -3.201000000     0.869000000
C     3.809000000    -3.875000000    -0.447000000
H     4.845000000    -4.000000000    -0.768000000
C     2.838000000    -3.353000000    -1.569000000
C     3.337000000    -2.560000000    -2.557000000
H     4.352000000    -2.171000000    -2.592000000
H     3.508000000    -4.921000000    -0.364000000
C     4.619000000    -2.054000000     0.939000000
H     5.218000000    -1.838000000     0.058000000
C     4.587000000    -1.227000000     2.021000000
C     5.361000000     0.114000000     1.902000000
H     6.257000000     0.058000000     1.281000000
H     5.600000000     0.436000000     2.918000000
C     4.685000000     1.356000000     1.303000000
C     4.977000000     1.789000000    -0.013000000
H     5.671000000     1.203000000    -0.611000000
C     3.687000000     1.972000000     2.008000000
C     2.887000000     2.867000000     1.427000000
H     2.124000000     3.320000000     2.056000000
C     3.070000000     3.247000000     0.105000000
O     2.249000000     4.124000000    -0.442000000
C     1.164000000     3.718000000    -1.298000000
C    -0.095000000     4.474000000    -0.950000000
C    -1.210000000     4.222000000    -1.779000000
H    -1.064000000     3.572000000    -2.638000000
C    -0.264000000     5.360000000     0.138000000
H     0.612000000     5.521000000     0.761000000
O     1.540000000     3.850000000    -2.677000000
H     0.944000000     2.670000000    -1.045000000
C     4.092000000     2.664000000    -0.703000000
C     4.246000000     3.024000000    -2.139000000
H     5.269000000     2.734000000    -2.390000000
H     4.181000000     4.076000000    -2.423000000
C     3.241000000     2.181000000    -3.012000000
C     3.575000000     0.915000000    -3.532000000
H     4.456000000     0.344000000    -3.250000000
C     1.985000000     2.740000000    -3.257000000
C     1.073000000     2.075000000    -4.083000000
H     0.118000000     2.571000000    -4.241000000
C     1.424000000     0.831000000    -4.621000000
O     0.516000000     0.033000000    -5.209000000
C    -0.341000000    -0.851000000    -4.389000000
C    -1.844000000    -0.877000000    -4.692000000
C    -2.348000000     0.324000000    -5.182000000
H    -1.641000000     1.137000000    -5.327000000
C    -2.714000000    -1.888000000    -4.370000000
H    -2.311000000    -2.818000000    -3.978000000
O     0.192000000    -2.175000000    -4.555000000
H    -0.189000000    -0.617000000    -3.325000000
C     2.610000000     0.233000000    -4.329000000
C     2.965000000    -1.204000000    -4.680000000
H     4.045000000    -1.249000000    -4.830000000
H     2.502000000    -1.405000000    -5.648000000
C     2.457000000    -2.130000000    -3.516000000
C     1.113000000    -2.577000000    -3.597000000
C     0.658000000    -3.565000000    -2.693000000
H    -0.366000000    -3.926000000    -2.750000000
C     1.476000000    -3.717000000    -1.617000000
O     0.893000000    -4.431000000    -0.542000000
C     0.793000000    -3.831000000     0.755000000
H     1.089000000    -2.777000000     0.656000000
C    -0.603000000    -3.949000000     1.351000000
C    -0.843000000    -4.433000000     2.680000000
H     0.020000000    -4.642000000     3.307000000
C    -1.735000000    -3.678000000     0.548000000
H    -1.614000000    -3.369000000    -0.487000000
C    -3.005000000    -3.754000000     1.100000000
O    -4.146000000    -3.521000000     0.346000000
C    -3.238000000    -4.182000000     2.383000000
H    -4.218000000    -4.161000000     2.853000000
C    -2.124000000    -4.437000000     3.180000000
O    -2.272000000    -4.832000000     4.471000000
C    -1.506000000    -4.297000000     5.474000000
C    -1.439000000    -2.954000000     5.848000000
H    -1.994000000    -2.222000000     5.266000000
C    -0.812000000    -5.212000000     6.231000000
H    -1.063000000    -6.258000000     6.071000000
C    -0.065000000    -4.788000000     7.320000000
H     0.285000000    -5.586000000     7.970000000
C     0.147000000    -3.387000000     7.584000000
H     0.762000000    -3.166000000     8.453000000
C    -0.546000000    -2.495000000     6.775000000
O    -0.431000000    -1.128000000     7.199000000
C    -0.161000000    -0.137000000     6.259000000
C    -1.114000000     0.791000000     5.875000000
H    -2.078000000     0.854000000     6.373000000
C    -0.838000000     1.781000000     4.895000000
O    -1.685000000     2.764000000     4.656000000
C    -1.283000000     4.057000000     4.387000000
C    -1.589000000     4.654000000     3.199000000
H    -2.149000000     4.091000000     2.457000000
C    -0.555000000     4.799000000     5.337000000
H    -0.255000000     4.439000000     6.318000000
C    -0.096000000     6.145000000     4.988000000
H     0.396000000     6.774000000     5.726000000
C    -0.466000000     6.735000000     3.762000000
H    -0.265000000     7.778000000     3.534000000
C    -1.139000000     5.984000000     2.858000000
O    -1.654000000     6.501000000     1.661000000
C    -1.513000000     5.789000000     0.495000000
C    -2.566000000     5.656000000    -0.356000000
H    -3.507000000     6.170000000    -0.178000000
C    -2.484000000     4.811000000    -1.468000000
O    -3.560000000     4.714000000    -2.321000000
C    -3.426000000     4.303000000    -3.609000000
C    -3.924000000     3.128000000    -4.131000000
H    -4.400000000     2.384000000    -3.497000000
C    -2.731000000     5.149000000    -4.433000000
H    -2.223000000     6.058000000    -4.120000000
C    -2.612000000     4.853000000    -5.783000000
H    -2.185000000     5.565000000    -6.486000000
C    -3.171000000     3.675000000    -6.304000000
H    -3.141000000     3.454000000    -7.367000000
C    -3.763000000     2.786000000    -5.441000000
O    -4.256000000     1.608000000    -5.941000000
C    -3.699000000     0.471000000    -5.445000000
C    -4.538000000    -0.606000000    -5.279000000
H    -5.588000000    -0.526000000    -5.550000000
C    -4.077000000    -1.737000000    -4.592000000
O    -5.022000000    -2.694000000    -4.205000000
C    -4.802000000    -3.631000000    -3.242000000
C    -4.591000000    -4.963000000    -3.562000000
H    -4.648000000    -5.209000000    -4.619000000
C    -4.207000000    -5.841000000    -2.560000000
H    -4.005000000    -6.851000000    -2.907000000
C    -4.301000000    -5.439000000    -1.254000000
H    -3.893000000    -6.094000000    -0.489000000
C    -4.380000000    -4.042000000    -0.972000000
C    -4.814000000    -3.128000000    -1.935000000
H    -4.830000000    -2.047000000    -1.826000000
C    -1.831000000     0.438000000    -0.815000000
H    -2.321000000     0.889000000    -1.675000000
C    -0.428000000     0.357000000    -0.761000000
H     0.156000000     0.599000000    -1.646000000
C     0.238000000    -0.174000000     0.343000000
H     1.386000000    -0.244000000     0.465000000
C    -0.471000000    -0.570000000     1.458000000
H     0.033000000    -0.949000000     2.343000000
C    -1.855000000    -0.504000000     1.439000000
H    -2.428000000    -0.856000000     2.293000000
C    -2.552000000    -0.006000000     0.290000000
C    -4.075000000    -0.026000000     0.318000000
O    -4.675000000    -0.564000000     1.235000000
O    -4.685000000     0.635000000    -0.476000000
O    -8.759000000     1.450000000    -0.058000000
H    -9.141000000     1.107000000     0.750000000
H    -7.905000000     1.792000000     0.207000000
O    -4.376000000    -1.614000000     3.580000000
H    -4.020000000    -0.781000000     3.888000000
H    -4.397000000    -1.528000000     2.627000000
O    -6.386000000     1.058000000     2.539000000
H    -6.591000000     1.741000000     1.900000000
H    -5.760000000     0.490000000     2.091000000
O    -7.885000000     4.343000000     3.101000000
H    -6.963000000     4.142000000     3.260000000
H    -7.869000000     5.153000000     2.592000000
O    -9.067000000    -2.050000000    -3.986000000
H    -8.571000000    -1.804000000    -3.205000000
H    -9.712000000    -1.351000000    -4.090000000
O    -5.285000000     4.217000000     2.830000000
H    -5.690000000     3.592000000     2.228000000
H    -4.916000000     4.893000000     2.261000000
O    -6.313000000     2.712000000     0.469000000
H    -6.035000000     3.347000000    -0.191000000
H    -5.805000000     1.925000000     0.273000000
O    -6.962000000    -1.930000000     0.804000000
H    -6.027000000    -1.723000000     0.809000000
H    -7.341000000    -1.339000000     1.455000000
O    -5.945000000    -3.130000000     5.645000000
H    -6.412000000    -3.758000000     5.093000000
H    -5.248000000    -2.791000000     5.083000000
O    -6.502000000     1.190000000    -2.181000000
H    -6.109000000     0.966000000    -1.338000000
H    -6.242000000     0.477000000    -2.764000000
O    -7.814000000    -4.147000000    -0.998000000
H    -7.875000000    -3.606000000    -0.211000000
H    -6.882000000    -4.348000000    -1.079000000
O    -6.863000000     4.069000000    -2.193000000
H    -6.942000000     3.116000000    -2.227000000
H    -7.074000000     4.358000000    -3.081000000
O    -7.331000000    -0.507000000     4.586000000
H    -6.450000000    -0.809000000     4.367000000
H    -7.427000000     0.317000000     4.108000000
O    -4.604000000     0.981000000     4.572000000
H    -4.309000000     1.864000000     4.798000000
H    -5.138000000     1.100000000     3.787000000
O    -9.300000000    -1.797000000     2.315000000
H    -9.761000000    -2.375000000     1.707000000
H    -9.041000000    -2.367000000     3.039000000
O    -9.576000000     1.464000000    -2.490000000
H    -8.993000000     1.947000000    -3.076000000
H    -9.204000000     1.598000000    -1.619000000
O    -6.149000000     5.765000000    -0.044000000
H    -6.444000000     5.381000000    -0.869000000
H    -6.573000000     6.622000000    -0.014000000
O    -9.761000000     0.847000000     2.409000000
H    -9.456000000     1.319000000     3.184000000
H    -9.650000000    -0.077000000     2.632000000
O    -8.342000000    -1.043000000    -1.596000000
H    -7.800000000    -1.233000000    -0.830000000
H    -8.732000000    -0.190000000    -1.407000000
