215
-1448.16351
C     0.269000000     1.777000000     4.718000000
H     0.848000000     2.671000000     4.502000000
C     0.610000000     0.466000000     4.606000000
C    -0.248000000    -0.561000000     4.982000000
H     0.042000000    -1.598000000     4.836000000
C     1.864000000     0.032000000     3.859000000
O     2.830000000     1.133000000     3.977000000
H     1.603000000     0.035000000     2.790000000
O     2.322000000    -1.335000000     4.122000000
C     2.639000000    -2.150000000     3.062000000
C     1.711000000    -3.154000000     2.780000000
H     0.852000000    -3.405000000     3.398000000
C     1.804000000    -3.821000000     1.597000000
O     0.741000000    -4.603000000     1.322000000
C     2.962000000    -3.678000000     0.809000000
C     3.230000000    -4.582000000    -0.419000000
H     4.265000000    -4.642000000    -0.760000000
C     2.522000000    -3.944000000    -1.621000000
C     3.289000000    -3.090000000    -2.471000000
H     4.329000000    -2.896000000    -2.225000000
H     2.815000000    -5.572000000    -0.217000000
C     3.899000000    -2.717000000     1.190000000
H     4.845000000    -2.573000000     0.673000000
C     3.696000000    -1.939000000     2.275000000
C     4.730000000    -0.894000000     2.760000000
H     5.667000000    -1.202000000     2.293000000
H     4.747000000    -0.796000000     3.848000000
C     4.381000000     0.442000000     2.177000000
C     4.828000000     0.725000000     0.841000000
H     5.425000000     0.040000000     0.245000000
C     3.582000000     1.372000000     2.872000000
C     3.119000000     2.550000000     2.265000000
H     2.363000000     3.171000000     2.738000000
C     3.621000000     2.840000000     0.963000000
O     3.138000000     3.962000000     0.341000000
C     2.045000000     3.799000000    -0.577000000
C     0.932000000     4.805000000    -0.449000000
C     0.272000000     5.292000000    -1.583000000
H     0.598000000     5.052000000    -2.592000000
C     0.530000000     5.292000000     0.857000000
H     1.079000000     4.977000000     1.740000000
O     2.579000000     3.799000000    -1.900000000
H     1.485000000     2.862000000    -0.447000000
C     4.434000000     1.936000000     0.231000000
C     4.901000000     2.300000000    -1.118000000
H     5.858000000     1.801000000    -1.287000000
H     5.093000000     3.375000000    -1.139000000
C     3.912000000     1.783000000    -2.220000000
C     4.117000000     0.547000000    -2.863000000
H     5.037000000    -0.005000000    -2.690000000
C     2.836000000     2.606000000    -2.543000000
C     1.868000000     2.173000000    -3.475000000
H     0.982000000     2.745000000    -3.741000000
C     2.002000000     0.864000000    -4.019000000
O     0.830000000     0.468000000    -4.688000000
C     0.108000000    -0.563000000    -4.156000000
C    -1.397000000    -0.272000000    -4.379000000
C    -1.889000000     1.040000000    -4.096000000
H    -1.199000000     1.858000000    -3.907000000
C    -2.239000000    -1.310000000    -4.786000000
H    -2.009000000    -2.371000000    -4.825000000
O     0.482000000    -1.850000000    -4.599000000
H     0.094000000    -0.472000000    -3.060000000
C     3.114000000     0.063000000    -3.720000000
C     3.262000000    -1.262000000    -4.318000000
H     4.323000000    -1.514000000    -4.260000000
H     2.979000000    -1.294000000    -5.372000000
C     2.629000000    -2.392000000    -3.544000000
C     1.239000000    -2.622000000    -3.762000000
C     0.551000000    -3.516000000    -2.959000000
H    -0.527000000    -3.596000000    -3.076000000
C     1.179000000    -4.097000000    -1.840000000
O     0.333000000    -4.814000000    -1.020000000
C    -0.076000000    -4.158000000     0.227000000
H    -0.061000000    -3.059000000     0.279000000
C    -1.583000000    -4.410000000     0.586000000
C    -1.983000000    -4.656000000     1.893000000
H    -1.286000000    -4.657000000     2.727000000
C    -2.449000000    -4.470000000    -0.506000000
H    -2.161000000    -4.358000000    -1.548000000
C    -3.756000000    -4.686000000    -0.198000000
O    -4.776000000    -4.415000000    -1.129000000
C    -4.203000000    -4.854000000     1.092000000
H    -5.268000000    -5.038000000     1.207000000
C    -3.330000000    -4.816000000     2.200000000
O    -3.766000000    -4.856000000     3.517000000
C    -2.965000000    -4.358000000     4.519000000
C    -2.781000000    -2.949000000     4.721000000
H    -3.171000000    -2.230000000     4.005000000
C    -2.210000000    -5.213000000     5.310000000
H    -2.211000000    -6.272000000     5.062000000
C    -1.371000000    -4.729000000     6.321000000
H    -0.808000000    -5.421000000     6.942000000
C    -1.475000000    -3.388000000     6.736000000
H    -0.899000000    -3.016000000     7.580000000
C    -2.172000000    -2.514000000     5.904000000
O    -2.191000000    -1.169000000     6.268000000
C    -1.368000000    -0.250000000     5.696000000
C    -1.738000000     1.080000000     5.909000000
H    -2.557000000     1.218000000     6.611000000
C    -0.932000000     2.142000000     5.326000000
O    -1.252000000     3.429000000     5.731000000
C    -0.685000000     4.540000000     5.219000000
C    -1.064000000     4.974000000     3.929000000
H    -1.850000000     4.409000000     3.433000000
C     0.398000000     5.246000000     5.844000000
H     0.795000000     4.879000000     6.787000000
C     0.980000000     6.340000000     5.227000000
H     1.837000000     6.908000000     5.580000000
C     0.486000000     6.787000000     4.012000000
H     0.964000000     7.616000000     3.498000000
C    -0.574000000     6.162000000     3.412000000
O    -1.032000000     6.625000000     2.209000000
C    -0.600000000     6.189000000     0.999000000
C    -1.327000000     6.541000000    -0.152000000
H    -2.182000000     7.203000000    -0.035000000
C    -0.808000000     6.130000000    -1.387000000
O    -1.334000000     6.659000000    -2.554000000
C    -1.855000000     5.821000000    -3.541000000
C    -2.609000000     4.648000000    -3.257000000
H    -2.915000000     4.456000000    -2.232000000
C    -1.419000000     6.000000000    -4.861000000
H    -0.839000000     6.868000000    -5.161000000
C    -1.853000000     5.135000000    -5.881000000
H    -1.352000000     5.174000000    -6.845000000
C    -2.591000000     3.944000000    -5.565000000
H    -2.958000000     3.254000000    -6.320000000
C    -2.980000000     3.723000000    -4.223000000
O    -3.775000000     2.585000000    -3.855000000
C    -3.248000000     1.343000000    -4.233000000
C    -4.077000000     0.326000000    -4.554000000
H    -5.141000000     0.540000000    -4.605000000
C    -3.612000000    -0.964000000    -4.903000000
O    -4.528000000    -1.943000000    -5.195000000
C    -4.603000000    -3.132000000    -4.567000000
C    -4.432000000    -4.319000000    -5.322000000
H    -4.408000000    -4.299000000    -6.408000000
C    -4.335000000    -5.498000000    -4.673000000
H    -4.203000000    -6.441000000    -5.197000000
C    -4.553000000    -5.586000000    -3.304000000
H    -4.519000000    -6.572000000    -2.848000000
C    -4.684000000    -4.378000000    -2.552000000
C    -4.734000000    -3.159000000    -3.176000000
H    -4.797000000    -2.215000000    -2.640000000
C    -3.036000000    -1.137000000    -0.042000000
H    -3.891000000    -1.638000000    -0.489000000
C    -1.810000000    -0.971000000    -0.789000000
H    -1.753000000    -1.418000000    -1.778000000
C    -0.751000000    -0.355000000    -0.069000000
H     0.228000000    -0.290000000    -0.562000000
C    -0.915000000     0.118000000     1.187000000
H    -0.105000000     0.652000000     1.678000000
C    -2.099000000    -0.010000000     1.859000000
H    -2.184000000     0.437000000     2.846000000
C    -3.182000000    -0.693000000     1.285000000
C    -4.456000000    -0.936000000     2.077000000
O    -4.585000000    -0.504000000     3.200000000
O    -5.394000000    -1.411000000     1.493000000
O   -10.470000000    -1.445000000     3.473000000
H    -9.816000000    -1.381000000     2.777000000
H   -11.252000000    -1.782000000     3.036000000
O    -5.908000000    -2.444000000     4.687000000
H    -5.571000000    -1.826000000     4.039000000
H    -5.856000000    -3.297000000     4.255000000
O    -6.992000000     0.860000000     7.140000000
H    -7.209000000     1.112000000     8.037000000
H    -6.309000000     1.477000000     6.876000000
O    -4.554000000     1.981000000     3.639000000
H    -4.351000000     1.056000000     3.776000000
H    -4.979000000     2.009000000     2.782000000
O    -9.934000000    -0.749000000    -0.360000000
H    -9.319000000    -0.880000000     0.361000000
H    -9.477000000    -0.159000000    -0.960000000
O    -7.586000000     0.554000000     3.098000000
H    -7.897000000     0.021000000     2.366000000
H    -6.638000000     0.424000000     3.103000000
O    -4.908000000     2.738000000     6.350000000
H    -4.828000000     3.672000000     6.545000000
H    -4.568000000     2.650000000     5.460000000
O    -3.553000000     3.982000000     1.595000000
H    -2.921000000     3.865000000     0.885000000
H    -3.429000000     3.216000000     2.154000000
O    -5.858000000     1.360000000    -1.880000000
H    -5.498000000     1.969000000    -2.525000000
H    -6.780000000     1.271000000    -2.123000000
O    -4.398000000    -0.519000000     8.113000000
H    -4.094000000    -1.116000000     7.430000000
H    -5.250000000    -0.869000000     8.376000000
O    -8.182000000    -1.765000000     1.825000000
H    -8.185000000    -2.664000000     2.153000000
H    -7.269000000    -1.600000000     1.588000000
O    -2.707000000     2.331000000    -0.742000000
H    -3.129000000     1.992000000    -1.531000000
H    -2.379000000     1.553000000    -0.292000000
O    -7.632000000    -5.005000000     4.598000000
H    -8.217000000    -4.363000000     5.001000000
H    -6.903000000    -5.085000000     5.213000000
O    -7.145000000    -1.932000000     7.028000000
H    -7.091000000    -0.985000000     7.155000000
H    -6.953000000    -2.061000000     6.099000000
O    -7.859000000    -3.200000000    -1.697000000
H    -7.430000000    -3.823000000    -1.111000000
H    -7.522000000    -2.346000000    -1.427000000
O    -8.232000000     2.089000000     5.054000000
H    -7.794000000     1.560000000     5.721000000
H    -8.150000000     1.576000000     4.250000000
O    -5.645000000     2.172000000     0.934000000
H    -6.087000000     1.658000000     0.258000000
H    -5.070000000     2.764000000     0.447000000
O    -8.646000000     3.070000000     0.371000000
H    -8.525000000     3.439000000    -0.504000000
H    -7.785000000     3.140000000     0.783000000
O    -6.486000000    -1.021000000    -0.897000000
H    -6.145000000    -0.176000000    -1.191000000
H    -6.060000000    -1.170000000    -0.052000000
