215
-1429.58158
C     1.864000000     1.116000000     5.128000000
H     2.842000000     1.558000000     4.954000000
C     1.517000000    -0.076000000     4.476000000
C     0.325000000    -0.774000000     4.962000000
H     0.226000000    -1.740000000     4.475000000
C     2.269000000    -0.705000000     3.359000000
O     3.600000000    -0.250000000     3.259000000
H     1.775000000    -0.596000000     2.382000000
O     2.371000000    -2.088000000     3.553000000
C     2.405000000    -2.882000000     2.414000000
C     1.224000000    -3.573000000     2.197000000
H     0.374000000    -3.542000000     2.874000000
C     0.940000000    -4.338000000     1.051000000
O    -0.267000000    -4.810000000     0.841000000
C     1.946000000    -4.386000000     0.072000000
C     1.793000000    -5.141000000    -1.252000000
H     2.684000000    -5.448000000    -1.804000000
C     1.176000000    -4.329000000    -2.325000000
C     2.005000000    -3.558000000    -3.137000000
H     3.081000000    -3.529000000    -2.988000000
H     1.285000000    -6.060000000    -0.951000000
C     3.235000000    -3.877000000     0.298000000
H     4.100000000    -3.943000000    -0.357000000
C     3.398000000    -2.985000000     1.389000000
C     4.786000000    -2.329000000     1.568000000
H     5.605000000    -2.754000000     0.984000000
H     5.164000000    -2.392000000     2.590000000
C     4.687000000    -0.844000000     1.160000000
C     5.231000000    -0.388000000    -0.040000000
H     5.633000000    -1.066000000    -0.788000000
C     4.184000000     0.141000000     2.098000000
C     4.103000000     1.497000000     1.742000000
H     3.696000000     2.271000000     2.389000000
C     4.521000000     1.851000000     0.425000000
O     4.169000000     3.079000000    -0.013000000
C     2.959000000     3.218000000    -0.785000000
C     2.152000000     4.404000000    -0.287000000
C     1.312000000     5.101000000    -1.136000000
H     1.095000000     4.786000000    -2.153000000
C     2.185000000     4.869000000     1.033000000
H     2.729000000     4.274000000     1.762000000
O     3.195000000     3.274000000    -2.149000000
H     2.300000000     2.347000000    -0.654000000
C     5.099000000     0.914000000    -0.497000000
C     5.303000000     1.286000000    -1.955000000
H     6.065000000     0.575000000    -2.282000000
H     5.723000000     2.286000000    -2.083000000
C     4.006000000     1.100000000    -2.738000000
C     3.761000000    -0.108000000    -3.455000000
H     4.407000000    -0.982000000    -3.436000000
C     3.048000000     2.058000000    -2.829000000
C     1.870000000     1.937000000    -3.579000000
H     1.259000000     2.825000000    -3.714000000
C     1.558000000     0.701000000    -4.127000000
O     0.327000000     0.543000000    -4.813000000
C    -0.701000000    -0.292000000    -4.209000000
C    -2.050000000     0.422000000    -4.051000000
C    -2.064000000     1.781000000    -3.641000000
H    -1.137000000     2.327000000    -3.483000000
C    -3.230000000    -0.353000000    -3.970000000
H    -3.164000000    -1.419000000    -4.171000000
O    -0.612000000    -1.542000000    -4.901000000
H    -0.409000000    -0.503000000    -3.170000000
C     2.559000000    -0.311000000    -4.103000000
C     2.376000000    -1.658000000    -4.818000000
H     3.325000000    -2.196000000    -4.777000000
H     2.225000000    -1.612000000    -5.899000000
C     1.455000000    -2.626000000    -4.093000000
C     0.043000000    -2.525000000    -4.241000000
C    -0.763000000    -3.250000000    -3.277000000
H    -1.840000000    -3.108000000    -3.301000000
C    -0.177000000    -4.088000000    -2.341000000
O    -0.988000000    -4.637000000    -1.374000000
C    -1.158000000    -4.141000000    -0.034000000
H    -0.832000000    -3.092000000     0.036000000
C    -2.554000000    -4.257000000     0.409000000
C    -2.932000000    -3.727000000     1.685000000
H    -2.126000000    -3.529000000     2.388000000
C    -3.549000000    -4.596000000    -0.516000000
H    -3.369000000    -5.035000000    -1.494000000
C    -4.873000000    -4.406000000    -0.180000000
O    -5.816000000    -4.723000000    -1.166000000
C    -5.217000000    -4.155000000     1.142000000
H    -6.275000000    -4.064000000     1.373000000
C    -4.276000000    -3.696000000     2.100000000
O    -4.651000000    -3.324000000     3.419000000
C    -3.790000000    -3.291000000     4.461000000
C    -3.140000000    -2.101000000     4.646000000
H    -3.455000000    -1.232000000     4.073000000
C    -3.570000000    -4.423000000     5.282000000
H    -4.162000000    -5.328000000     5.170000000
C    -2.647000000    -4.308000000     6.264000000
H    -2.363000000    -5.097000000     6.956000000
C    -1.910000000    -3.145000000     6.513000000
H    -1.285000000    -3.109000000     7.402000000
C    -2.237000000    -2.057000000     5.767000000
O    -1.731000000    -0.830000000     6.199000000
C    -0.552000000    -0.225000000     5.888000000
C    -0.175000000     0.990000000     6.408000000
H    -0.896000000     1.455000000     7.076000000
C     0.883000000     1.720000000     5.931000000
O     0.978000000     2.986000000     6.376000000
C     1.599000000     4.015000000     5.613000000
C     1.163000000     4.560000000     4.354000000
H     0.278000000     4.204000000     3.833000000
C     2.819000000     4.441000000     6.131000000
H     3.156000000     4.062000000     7.092000000
C     3.466000000     5.529000000     5.562000000
H     4.415000000     5.795000000     6.022000000
C     2.941000000     6.201000000     4.437000000
H     3.365000000     7.083000000     3.963000000
C     1.793000000     5.709000000     3.845000000
O     1.256000000     6.363000000     2.767000000
C     1.420000000     6.068000000     1.426000000
C     0.714000000     6.777000000     0.508000000
H     0.248000000     7.728000000     0.756000000
C     0.689000000     6.352000000    -0.791000000
O    -0.029000000     6.978000000    -1.680000000
C    -0.894000000     6.374000000    -2.622000000
C    -1.734000000     5.354000000    -2.296000000
H    -1.735000000     5.032000000    -1.258000000
C    -0.953000000     6.858000000    -3.933000000
H    -0.352000000     7.734000000    -4.167000000
C    -1.815000000     6.365000000    -4.887000000
H    -1.923000000     6.825000000    -5.866000000
C    -2.504000000     5.214000000    -4.596000000
H    -3.025000000     4.733000000    -5.420000000
C    -2.527000000     4.749000000    -3.257000000
O    -3.361000000     3.684000000    -2.885000000
C    -3.259000000     2.397000000    -3.277000000
C    -4.453000000     1.639000000    -3.304000000
H    -5.393000000     2.165000000    -3.156000000
C    -4.435000000     0.281000000    -3.618000000
O    -5.597000000    -0.469000000    -3.467000000
C    -5.752000000    -1.821000000    -3.461000000
C    -6.175000000    -2.484000000    -4.617000000
H    -6.147000000    -1.907000000    -5.537000000
C    -6.412000000    -3.850000000    -4.615000000
H    -6.781000000    -4.163000000    -5.589000000
C    -6.361000000    -4.556000000    -3.442000000
H    -6.506000000    -5.630000000    -3.357000000
C    -5.849000000    -3.945000000    -2.283000000
C    -5.576000000    -2.588000000    -2.336000000
H    -5.237000000    -2.114000000    -1.418000000
C    -3.730000000    -0.009000000     0.791000000
H    -4.516000000    -0.698000000     1.090000000
C    -2.738000000    -0.387000000    -0.155000000
H    -2.759000000    -1.412000000    -0.515000000
C    -1.668000000     0.483000000    -0.366000000
H    -0.838000000     0.110000000    -1.054000000
C    -1.593000000     1.681000000     0.270000000
H    -0.654000000     2.229000000     0.271000000
C    -2.492000000     2.083000000     1.208000000
H    -2.258000000     3.020000000     1.706000000
C    -3.604000000     1.248000000     1.490000000
C    -4.667000000     1.685000000     2.446000000
O    -4.617000000     2.812000000     2.909000000
O    -5.552000000     0.895000000     2.841000000
O    -9.270000000    -1.082000000     3.973000000
H    -8.909000000    -0.834000000     4.824000000
H    -8.599000000    -0.823000000     3.342000000
O    -7.506000000     4.223000000     5.054000000
H    -7.035000000     4.853000000     4.509000000
H    -6.886000000     3.992000000     5.745000000
O    -6.806000000    -1.449000000     2.358000000
H    -6.076000000    -0.836000000     2.270000000
H    -6.518000000    -2.070000000     3.027000000
O    -6.158000000     2.963000000     7.183000000
H    -5.792000000     2.186000000     6.762000000
H    -5.746000000     2.985000000     8.047000000
O    -4.235000000     6.123000000     5.122000000
H    -4.114000000     6.395000000     4.212000000
H    -4.849000000     6.763000000     5.483000000
O    -3.339000000     3.456000000     5.116000000
H    -3.859000000     3.120000000     4.385000000
H    -3.631000000     4.362000000     5.221000000
O    -6.907000000     6.306000000     3.177000000
H    -7.507000000     6.786000000     3.748000000
H    -7.222000000     6.490000000     2.292000000
O    -7.988000000     2.191000000     3.294000000
H    -7.157000000     1.763000000     3.092000000
H    -7.756000000     2.884000000     3.912000000
O    -5.560000000     5.510000000    -1.928000000
H    -5.954000000     4.826000000    -1.387000000
H    -5.076000000     5.033000000    -2.602000000
O    -4.108000000     1.143000000     6.532000000
H    -3.292000000     0.893000000     6.964000000
H    -3.859000000     1.857000000     5.945000000
O    -9.290000000     4.350000000     1.475000000
H   -10.215000000     4.319000000     1.721000000
H    -8.854000000     3.783000000     2.110000000
O    -5.928000000    -0.247000000     5.263000000
H    -5.288000000     0.187000000     5.826000000
H    -5.826000000     0.178000000     4.411000000
O    -9.029000000    -0.886000000     0.381000000
H    -9.741000000    -0.249000000     0.322000000
H    -8.473000000    -0.558000000     1.088000000
O    -5.509000000     4.454000000     0.661000000
H    -5.149000000     3.887000000     1.343000000
H    -5.347000000     5.342000000     0.978000000
O   -10.761000000     0.957000000     3.106000000
H   -10.666000000     0.006000000     3.160000000
H    -9.892000000     1.296000000     3.322000000
O    -8.892000000     1.761000000    -2.016000000
H    -9.581000000     1.775000000    -1.351000000
H    -8.086000000     1.934000000    -1.530000000
O    -8.294000000     0.348000000     6.488000000
H    -7.349000000     0.249000000     6.610000000
H    -8.427000000     1.293000000     6.409000000
O    -4.313000000     7.300000000     2.629000000
H    -4.180000000     7.193000000     1.687000000
H    -5.254000000     7.173000000     2.755000000
O    -6.584000000     1.820000000    -0.559000000
H    -6.370000000     2.736000000    -0.379000000
H    -6.239000000     1.341000000     0.193000000
