215
-1444.40773
C     1.893000000     1.788000000     5.016000000
H     2.714000000     2.244000000     4.470000000
C     1.540000000     0.455000000     4.771000000
C     0.349000000    -0.088000000     5.344000000
H     0.058000000    -1.098000000     5.069000000
C     2.332000000    -0.309000000     3.735000000
O     3.699000000     0.251000000     3.592000000
H     1.808000000    -0.163000000     2.779000000
O     2.415000000    -1.737000000     4.057000000
C     2.414000000    -2.656000000     3.049000000
C     1.163000000    -3.244000000     2.818000000
H     0.331000000    -3.119000000     3.506000000
C     0.960000000    -4.026000000     1.682000000
O    -0.306000000    -4.521000000     1.558000000
C     2.039000000    -4.192000000     0.808000000
C     1.883000000    -5.143000000    -0.365000000
H     2.856000000    -5.564000000    -0.625000000
C     1.247000000    -4.532000000    -1.534000000
C     2.044000000    -3.883000000    -2.448000000
H     3.123000000    -3.923000000    -2.328000000
H     1.339000000    -6.051000000    -0.095000000
C     3.283000000    -3.644000000     1.088000000
H     4.114000000    -3.843000000     0.416000000
C     3.435000000    -2.779000000     2.138000000
C     4.716000000    -2.089000000     2.360000000
H     5.511000000    -2.734000000     1.979000000
H     4.844000000    -2.010000000     3.441000000
C     4.553000000    -0.804000000     1.574000000
C     4.791000000    -0.670000000     0.224000000
H     5.106000000    -1.532000000    -0.359000000
C     4.103000000     0.277000000     2.345000000
C     3.964000000     1.514000000     1.730000000
H     3.290000000     2.254000000     2.154000000
C     4.153000000     1.660000000     0.347000000
O     3.826000000     2.922000000    -0.225000000
C     2.625000000     2.936000000    -1.089000000
C     1.798000000     4.192000000    -0.816000000
C     0.944000000     4.760000000    -1.802000000
H     0.908000000     4.283000000    -2.778000000
C     1.758000000     4.669000000     0.502000000
H     2.356000000     4.118000000     1.224000000
O     3.033000000     2.795000000    -2.469000000
H     2.035000000     2.049000000    -0.816000000
C     4.738000000     0.606000000    -0.376000000
C     5.006000000     0.822000000    -1.878000000
H     5.703000000     0.067000000    -2.249000000
H     5.434000000     1.808000000    -2.073000000
C     3.837000000     0.559000000    -2.808000000
C     3.704000000    -0.718000000    -3.418000000
H     4.590000000    -1.335000000    -3.292000000
C     2.911000000     1.579000000    -3.038000000
C     1.858000000     1.341000000    -3.914000000
H     1.223000000     2.174000000    -4.203000000
C     1.621000000     0.061000000    -4.390000000
O     0.397000000    -0.155000000    -4.977000000
C    -0.584000000    -0.751000000    -4.140000000
C    -2.034000000    -0.205000000    -4.286000000
C    -2.229000000     1.191000000    -4.298000000
H    -1.348000000     1.819000000    -4.188000000
C    -3.185000000    -0.972000000    -4.285000000
H    -3.086000000    -2.051000000    -4.209000000
O    -0.579000000    -2.148000000    -4.358000000
H    -0.411000000    -0.641000000    -3.059000000
C     2.560000000    -0.972000000    -4.117000000
C     2.284000000    -2.382000000    -4.563000000
H     3.246000000    -2.899000000    -4.596000000
H     2.001000000    -2.461000000    -5.615000000
C     1.429000000    -3.098000000    -3.450000000
C     0.031000000    -3.026000000    -3.523000000
C    -0.732000000    -3.639000000    -2.554000000
H    -1.817000000    -3.559000000    -2.551000000
C    -0.164000000    -4.455000000    -1.585000000
O    -0.928000000    -4.826000000    -0.563000000
C    -1.067000000    -3.922000000     0.523000000
H    -0.592000000    -2.969000000     0.248000000
C    -2.521000000    -3.706000000     0.985000000
C    -2.763000000    -2.937000000     2.087000000
H    -1.892000000    -2.505000000     2.573000000
C    -3.592000000    -4.103000000     0.130000000
H    -3.348000000    -4.677000000    -0.761000000
C    -4.855000000    -3.594000000     0.355000000
O    -5.850000000    -4.006000000    -0.514000000
C    -5.111000000    -2.854000000     1.497000000
H    -6.134000000    -2.568000000     1.726000000
C    -4.079000000    -2.565000000     2.407000000
O    -4.273000000    -1.724000000     3.473000000
C    -3.546000000    -1.911000000     4.654000000
C    -2.838000000    -0.850000000     5.093000000
H    -2.714000000     0.009000000     4.438000000
C    -3.537000000    -3.111000000     5.377000000
H    -4.170000000    -3.918000000     5.016000000
C    -2.890000000    -3.189000000     6.633000000
H    -3.016000000    -4.053000000     7.280000000
C    -2.272000000    -2.061000000     7.105000000
H    -2.019000000    -2.048000000     8.162000000
C    -2.201000000    -0.901000000     6.319000000
O    -1.529000000     0.181000000     6.874000000
C    -0.380000000     0.672000000     6.262000000
C     0.033000000     1.958000000     6.542000000
H    -0.423000000     2.519000000     7.354000000
C     1.125000000     2.567000000     5.935000000
O     1.364000000     3.943000000     6.101000000
C     1.938000000     4.804000000     5.186000000
C     1.196000000     5.122000000     4.084000000
H     0.180000000     4.749000000     3.982000000
C     3.262000000     5.295000000     5.399000000
H     3.727000000     5.075000000     6.356000000
C     3.780000000     6.130000000     4.456000000
H     4.819000000     6.370000000     4.664000000
C     3.027000000     6.393000000     3.270000000
H     3.459000000     7.061000000     2.530000000
C     1.756000000     5.872000000     3.091000000
O     1.075000000     6.364000000     2.063000000
C     0.969000000     5.816000000     0.771000000
C     0.199000000     6.400000000    -0.204000000
H    -0.308000000     7.332000000     0.036000000
C     0.060000000     5.799000000    -1.453000000
O    -0.733000000     6.345000000    -2.420000000
C    -1.066000000     5.667000000    -3.563000000
C    -2.078000000     4.666000000    -3.442000000
H    -2.642000000     4.452000000    -2.537000000
C    -0.443000000     5.958000000    -4.818000000
H     0.377000000     6.663000000    -4.926000000
C    -0.976000000     5.276000000    -5.916000000
H    -0.522000000     5.467000000    -6.884000000
C    -1.999000000     4.340000000    -5.795000000
H    -2.452000000     3.843000000    -6.649000000
C    -2.469000000     3.952000000    -4.560000000
O    -3.579000000     3.163000000    -4.469000000
C    -3.470000000     1.779000000    -4.461000000
C    -4.578000000     0.972000000    -4.286000000
H    -5.572000000     1.393000000    -4.156000000
C    -4.425000000    -0.444000000    -4.285000000
O    -5.562000000    -1.176000000    -4.352000000
C    -5.571000000    -2.499000000    -3.820000000
C    -5.836000000    -3.596000000    -4.630000000
H    -5.919000000    -3.475000000    -5.707000000
C    -5.939000000    -4.821000000    -4.059000000
H    -6.009000000    -5.678000000    -4.723000000
C    -5.922000000    -4.980000000    -2.687000000
H    -6.093000000    -5.970000000    -2.272000000
C    -5.844000000    -3.828000000    -1.886000000
C    -5.662000000    -2.596000000    -2.426000000
H    -5.529000000    -1.713000000    -1.806000000
C    -2.889000000    -0.107000000    -0.104000000
H    -3.937000000    -0.391000000    -0.167000000
C    -1.936000000    -0.830000000    -0.816000000
H    -2.345000000    -1.565000000    -1.505000000
C    -0.585000000    -0.585000000    -0.622000000
H     0.209000000    -1.075000000    -1.141000000
C    -0.224000000     0.387000000     0.319000000
H     0.835000000     0.588000000     0.461000000
C    -1.173000000     1.209000000     0.936000000
H    -0.879000000     2.064000000     1.540000000
C    -2.544000000     1.054000000     0.653000000
C    -3.695000000     1.888000000     1.247000000
O    -3.456000000     2.690000000     2.106000000
O    -4.843000000     1.799000000     0.873000000
O    -8.924000000    -0.652000000    -0.718000000
H    -8.742000000    -0.394000000     0.185000000
H    -8.253000000    -0.206000000    -1.235000000
O    -6.591000000     4.218000000     3.286000000
H    -6.384000000     4.613000000     4.132000000
H    -6.179000000     3.354000000     3.317000000
O    -6.622000000     1.176000000    -1.049000000
H    -5.898000000     1.254000000    -0.428000000
H    -7.370000000     1.566000000    -0.597000000
O    -4.346000000     7.697000000     3.626000000
H    -4.012000000     6.803000000     3.546000000
H    -3.569000000     8.228000000     3.805000000
O    -9.492000000     2.680000000     3.946000000
H    -8.572000000     2.436000000     4.040000000
H    -9.959000000     2.086000000     4.534000000
O    -1.499000000     7.862000000     2.251000000
H    -1.843000000     8.413000000     2.953000000
H    -1.370000000     7.006000000     2.660000000
O    -4.299000000     4.955000000     5.983000000
H    -4.347000000     4.669000000     6.895000000
H    -5.132000000     5.401000000     5.828000000
O    -2.383000000     5.460000000     2.859000000
H    -2.783000000     4.630000000     2.599000000
H    -2.036000000     5.296000000     3.736000000
O    -4.090000000     2.375000000     4.759000000
H    -3.827000000     2.474000000     3.844000000
H    -3.857000000     3.210000000     5.166000000
O    -5.540000000     0.301000000     6.324000000
H    -6.377000000     0.371000000     5.864000000
H    -4.934000000     0.823000000     5.798000000
O    -5.694000000     7.007000000     0.794000000
H    -5.394000000     6.113000000     0.634000000
H    -4.907000000     7.479000000     1.066000000
O    -5.943000000     1.211000000     3.152000000
H    -5.376000000     1.457000000     3.883000000
H    -5.363000000     1.203000000     2.390000000
O    -5.658000000     4.238000000     0.589000000
H    -6.328000000     4.157000000     1.267000000
H    -5.237000000     3.378000000     0.564000000
O    -8.741000000     2.401000000     0.108000000
H    -9.622000000     2.591000000     0.431000000
H    -8.480000000     3.196000000    -0.358000000
O    -7.132000000     2.428000000     5.688000000
H    -7.780000000     3.012000000     6.083000000
H    -6.372000000     2.488000000     6.267000000
O    -9.340000000     4.782000000     2.047000000
H    -8.399000000     4.906000000     2.172000000
H    -9.561000000     4.039000000     2.609000000
O    -7.965000000     4.039000000    -1.866000000
H    -7.651000000     4.890000000    -2.171000000
H    -7.231000000     3.445000000    -2.017000000
O    -8.257000000     0.439000000     1.904000000
H    -7.431000000     0.601000000     2.359000000
H    -8.501000000     1.289000000     1.538000000
O    -5.040000000     4.044000000    -2.125000000
H    -4.456000000     3.291000000    -2.037000000
H    -5.180000000     4.344000000    -1.227000000
