215
-1435.81025
C     2.150000000     1.475000000     5.076000000
H     2.987000000     1.962000000     4.581000000
C     1.839000000     0.187000000     4.817000000
C     0.799000000    -0.541000000     5.458000000
H     0.595000000    -1.567000000     5.163000000
C     2.639000000    -0.537000000     3.708000000
O     3.947000000     0.021000000     3.498000000
H     1.976000000    -0.302000000     2.863000000
O     2.651000000    -2.006000000     3.887000000
C     2.550000000    -2.876000000     2.798000000
C     1.267000000    -3.466000000     2.603000000
H     0.484000000    -3.251000000     3.326000000
C     1.037000000    -4.222000000     1.472000000
O    -0.228000000    -4.663000000     1.230000000
C     2.132000000    -4.341000000     0.505000000
C     1.925000000    -5.160000000    -0.788000000
H     2.845000000    -5.589000000    -1.189000000
C     1.199000000    -4.312000000    -1.913000000
C     1.902000000    -3.705000000    -3.010000000
H     2.976000000    -3.874000000    -2.992000000
H     1.384000000    -6.078000000    -0.549000000
C     3.446000000    -3.873000000     0.746000000
H     4.211000000    -3.948000000    -0.023000000
C     3.649000000    -3.084000000     1.859000000
C     4.918000000    -2.243000000     1.849000000
H     5.753000000    -2.713000000     1.325000000
H     5.307000000    -2.126000000     2.863000000
C     4.658000000    -0.868000000     1.307000000
C     5.007000000    -0.598000000    -0.030000000
H     5.534000000    -1.402000000    -0.537000000
C     4.288000000     0.200000000     2.162000000
C     4.195000000     1.472000000     1.616000000
H     3.811000000     2.310000000     2.193000000
C     4.362000000     1.674000000     0.274000000
O     4.041000000     2.897000000    -0.165000000
C     2.806000000     2.985000000    -0.881000000
C     1.962000000     4.254000000    -0.457000000
C     0.919000000     4.743000000    -1.295000000
H     0.820000000     4.251000000    -2.259000000
C     2.126000000     4.923000000     0.784000000
H     2.914000000     4.576000000     1.447000000
O     3.037000000     3.018000000    -2.356000000
H     2.232000000     2.085000000    -0.613000000
C     4.799000000     0.644000000    -0.617000000
C     5.075000000     0.991000000    -2.076000000
H     5.905000000     0.404000000    -2.476000000
H     5.431000000     2.018000000    -2.176000000
C     3.795000000     0.789000000    -2.960000000
C     3.505000000    -0.434000000    -3.546000000
H     4.188000000    -1.275000000    -3.459000000
C     2.827000000     1.816000000    -2.999000000
C     1.646000000     1.628000000    -3.709000000
H     0.878000000     2.397000000    -3.687000000
C     1.328000000     0.347000000    -4.196000000
O     0.115000000     0.275000000    -4.937000000
C    -0.888000000    -0.610000000    -4.306000000
C    -2.301000000     0.045000000    -4.363000000
C    -2.421000000     1.420000000    -4.355000000
H    -1.519000000     2.026000000    -4.386000000
C    -3.461000000    -0.813000000    -4.541000000
H    -3.485000000    -1.899000000    -4.591000000
O    -0.767000000    -1.966000000    -4.852000000
H    -0.805000000    -0.772000000    -3.221000000
C     2.285000000    -0.642000000    -4.160000000
C     2.070000000    -1.983000000    -4.844000000
H     3.073000000    -2.406000000    -4.939000000
H     1.603000000    -1.804000000    -5.815000000
C     1.307000000    -2.906000000    -3.977000000
C    -0.075000000    -2.820000000    -4.014000000
C    -0.830000000    -3.429000000    -2.924000000
H    -1.911000000    -3.337000000    -2.978000000
C    -0.190000000    -4.175000000    -1.891000000
O    -1.017000000    -4.679000000    -0.897000000
C    -1.114000000    -3.977000000     0.327000000
H    -0.592000000    -3.009000000     0.302000000
C    -2.531000000    -3.767000000     0.805000000
C    -2.679000000    -2.965000000     1.980000000
H    -1.898000000    -2.738000000     2.702000000
C    -3.604000000    -4.102000000     0.008000000
H    -3.487000000    -4.743000000    -0.862000000
C    -4.896000000    -3.669000000     0.347000000
O    -5.944000000    -3.976000000    -0.517000000
C    -5.085000000    -2.889000000     1.480000000
H    -6.106000000    -2.634000000     1.750000000
C    -3.997000000    -2.597000000     2.285000000
O    -4.205000000    -1.866000000     3.466000000
C    -3.527000000    -2.204000000     4.613000000
C    -2.645000000    -1.251000000     5.228000000
H    -2.558000000    -0.266000000     4.778000000
C    -3.601000000    -3.470000000     5.172000000
H    -4.328000000    -4.176000000     4.779000000
C    -2.851000000    -3.790000000     6.333000000
H    -2.945000000    -4.725000000     6.879000000
C    -2.037000000    -2.793000000     6.912000000
H    -1.388000000    -3.083000000     7.735000000
C    -1.924000000    -1.520000000     6.383000000
O    -1.043000000    -0.618000000     6.983000000
C    -0.125000000     0.135000000     6.226000000
C     0.111000000     1.484000000     6.514000000
H    -0.475000000     2.216000000     7.064000000
C     1.223000000     2.144000000     5.911000000
O     1.241000000     3.467000000     5.991000000
C     1.967000000     4.328000000     5.245000000
C     1.465000000     4.813000000     4.032000000
H     0.538000000     4.396000000     3.647000000
C     2.922000000     5.082000000     5.932000000
H     3.398000000     4.729000000     6.843000000
C     3.456000000     6.239000000     5.408000000
H     4.231000000     6.689000000     6.022000000
C     2.955000000     6.687000000     4.155000000
H     3.478000000     7.460000000     3.598000000
C     1.969000000     5.992000000     3.476000000
O     1.402000000     6.555000000     2.341000000
C     1.264000000     5.883000000     1.180000000
C     0.339000000     6.375000000     0.253000000
H    -0.178000000     7.326000000     0.348000000
C     0.026000000     5.744000000    -0.924000000
O    -0.837000000     6.311000000    -1.843000000
C    -1.338000000     5.687000000    -2.945000000
C    -2.369000000     4.806000000    -2.969000000
H    -2.726000000     4.534000000    -1.979000000
C    -0.783000000     6.103000000    -4.196000000
H    -0.033000000     6.888000000    -4.249000000
C    -1.165000000     5.551000000    -5.416000000
H    -0.706000000     5.861000000    -6.352000000
C    -2.162000000     4.584000000    -5.330000000
H    -2.487000000     4.088000000    -6.240000000
C    -2.812000000     4.260000000    -4.182000000
O    -3.845000000     3.371000000    -4.210000000
C    -3.708000000     1.992000000    -4.288000000
C    -4.863000000     1.148000000    -4.300000000
H    -5.824000000     1.642000000    -4.187000000
C    -4.751000000    -0.247000000    -4.427000000
O    -5.922000000    -0.982000000    -4.394000000
C    -6.001000000    -2.233000000    -3.793000000
C    -5.812000000    -3.324000000    -4.628000000
H    -5.899000000    -3.089000000    -5.685000000
C    -5.811000000    -4.590000000    -4.109000000
H    -5.826000000    -5.405000000    -4.829000000
C    -5.944000000    -4.872000000    -2.748000000
H    -5.911000000    -5.872000000    -2.323000000
C    -5.946000000    -3.745000000    -1.898000000
C    -5.990000000    -2.397000000    -2.392000000
H    -5.949000000    -1.547000000    -1.716000000
C    -2.312000000    -0.037000000     0.521000000
H    -3.376000000    -0.243000000     0.607000000
C    -1.639000000    -0.658000000    -0.514000000
H    -2.102000000    -1.370000000    -1.192000000
C    -0.262000000    -0.453000000    -0.628000000
H     0.398000000    -0.833000000    -1.493000000
C     0.427000000     0.301000000     0.211000000
H     1.513000000     0.272000000     0.193000000
C    -0.216000000     0.973000000     1.271000000
H     0.228000000     1.667000000     1.980000000
C    -1.618000000     0.743000000     1.453000000
C    -2.458000000     1.524000000     2.473000000
O    -1.831000000     2.249000000     3.253000000
O    -3.657000000     1.321000000     2.649000000
O    -8.613000000    -1.284000000     0.007000000
H    -8.902000000    -1.564000000     0.876000000
H    -7.786000000    -0.829000000     0.165000000
O    -6.947000000     4.050000000     4.105000000
H    -7.535000000     3.661000000     4.752000000
H    -6.493000000     4.745000000     4.582000000
O    -6.467000000     0.404000000     1.632000000
H    -5.568000000     0.499000000     1.948000000
H    -6.940000000     0.018000000     2.369000000
O    -1.967000000     4.534000000     4.611000000
H    -1.509000000     3.990000000     3.970000000
H    -2.298000000     3.912000000     5.259000000
O    -2.626000000     6.961000000     1.748000000
H    -1.979000000     6.988000000     2.453000000
H    -3.195000000     6.224000000     1.974000000
O    -5.800000000     5.077000000     6.510000000
H    -5.893000000     6.028000000     6.454000000
H    -5.640000000     4.906000000     7.438000000
O    -3.932000000     4.630000000     2.934000000
H    -3.523000000     3.766000000     2.880000000
H    -3.539000000     5.033000000     3.709000000
O    -3.170000000     2.479000000     5.801000000
H    -2.752000000     2.278000000     4.964000000
H    -4.040000000     2.085000000     5.735000000
O    -6.043000000     0.943000000     7.210000000
H    -6.854000000     0.497000000     7.452000000
H    -6.163000000     1.178000000     6.290000000
O    -4.915000000    -1.607000000     8.655000000
H    -4.497000000    -1.746000000     7.805000000
H    -4.865000000    -0.662000000     8.795000000
O    -5.443000000     1.840000000     4.588000000
H    -5.766000000     2.716000000     4.379000000
H    -4.794000000     1.656000000     3.909000000
O    -5.420000000     3.208000000     0.605000000
H    -5.602000000     2.332000000     0.945000000
H    -5.187000000     3.722000000     1.378000000
O    -8.890000000     1.978000000     0.995000000
H    -8.361000000     1.475000000     1.614000000
H    -9.016000000     2.826000000     1.422000000
O    -8.552000000     4.554000000     1.967000000
H    -7.907000000     4.519000000     2.673000000
H    -9.396000000     4.462000000     2.408000000
O    -2.682000000     3.284000000     8.694000000
H    -3.119000000     2.580000000     9.172000000
H    -2.816000000     3.066000000     7.771000000
O    -7.688000000    -0.628000000     4.092000000
H    -7.608000000     0.272000000     4.408000000
H    -7.311000000    -1.161000000     4.792000000
O    -1.567000000     7.581000000     4.089000000
H    -1.526000000     6.714000000     4.494000000
H    -1.067000000     8.145000000     4.679000000
O    -5.633000000     7.717000000     3.232000000
H    -5.970000000     7.332000000     2.422000000
H    -5.274000000     6.975000000     3.718000000
O    -7.766000000     4.152000000    -0.657000000
H    -8.003000000     4.450000000     0.221000000
H    -7.023000000     3.565000000    -0.519000000
