215
-1457.56691
C     0.590000000     1.736000000     4.641000000
H     1.143000000     2.491000000     4.089000000
C     0.922000000     0.377000000     4.422000000
C     0.160000000    -0.597000000     5.054000000
H     0.460000000    -1.632000000     4.915000000
C     1.984000000     0.041000000     3.415000000
O     2.963000000     1.029000000     3.357000000
H     1.585000000    -0.177000000     2.414000000
O     2.658000000    -1.178000000     3.845000000
C     2.786000000    -2.069000000     2.865000000
C     1.826000000    -3.120000000     2.675000000
H     0.940000000    -3.246000000     3.294000000
C     1.941000000    -4.028000000     1.635000000
O     0.869000000    -4.734000000     1.407000000
C     2.967000000    -3.880000000     0.710000000
C     3.049000000    -4.748000000    -0.557000000
H     4.065000000    -4.962000000    -0.898000000
C     2.366000000    -4.114000000    -1.749000000
C     3.027000000    -3.231000000    -2.628000000
H     4.090000000    -3.009000000    -2.571000000
H     2.625000000    -5.739000000    -0.383000000
C     3.910000000    -2.862000000     0.826000000
H     4.703000000    -2.822000000     0.084000000
C     3.815000000    -1.976000000     1.889000000
C     4.899000000    -0.922000000     2.157000000
H     5.852000000    -1.249000000     1.734000000
H     5.107000000    -0.813000000     3.223000000
C     4.419000000     0.463000000     1.523000000
C     4.999000000     0.829000000     0.292000000
H     5.623000000     0.096000000    -0.213000000
C     3.547000000     1.304000000     2.209000000
C     3.263000000     2.571000000     1.641000000
H     2.525000000     3.211000000     2.117000000
C     3.817000000     2.970000000     0.403000000
O     3.202000000     4.061000000    -0.169000000
C     2.079000000     3.815000000    -1.057000000
C     0.906000000     4.693000000    -0.583000000
C    -0.146000000     4.875000000    -1.485000000
H    -0.218000000     4.361000000    -2.441000000
C     0.767000000     5.232000000     0.707000000
H     1.525000000     5.130000000     1.479000000
O     2.444000000     3.904000000    -2.441000000
H     1.578000000     2.859000000    -0.848000000
C     4.681000000     2.059000000    -0.282000000
C     4.995000000     2.311000000    -1.691000000
H     5.903000000     1.756000000    -1.935000000
H     5.272000000     3.354000000    -1.856000000
C     3.820000000     1.824000000    -2.542000000
C     3.858000000     0.521000000    -3.011000000
H     4.767000000    -0.026000000    -2.774000000
C     2.693000000     2.656000000    -2.944000000
C     1.806000000     2.114000000    -3.871000000
H     0.991000000     2.779000000    -4.147000000
C     1.788000000     0.789000000    -4.216000000
O     0.680000000     0.336000000    -4.868000000
C    -0.177000000    -0.497000000    -4.066000000
C    -1.667000000    -0.150000000    -4.311000000
C    -1.961000000     1.096000000    -4.783000000
H    -1.141000000     1.782000000    -4.977000000
C    -2.710000000    -1.060000000    -3.993000000
H    -2.445000000    -2.050000000    -3.631000000
O     0.045000000    -1.882000000    -4.408000000
H     0.112000000    -0.347000000    -3.015000000
C     2.839000000     0.018000000    -3.820000000
C     2.923000000    -1.432000000    -4.290000000
H     3.957000000    -1.751000000    -4.430000000
H     2.465000000    -1.485000000    -5.280000000
C     2.237000000    -2.462000000    -3.501000000
C     0.837000000    -2.642000000    -3.575000000
C     0.246000000    -3.579000000    -2.759000000
H    -0.832000000    -3.708000000    -2.802000000
C     0.937000000    -4.190000000    -1.738000000
O     0.170000000    -4.892000000    -0.896000000
C    -0.048000000    -4.180000000     0.391000000
H     0.082000000    -3.092000000     0.298000000
C    -1.519000000    -4.407000000     0.856000000
C    -1.984000000    -4.253000000     2.243000000
H    -1.316000000    -3.701000000     2.899000000
C    -2.454000000    -4.689000000    -0.142000000
H    -2.188000000    -4.667000000    -1.196000000
C    -3.771000000    -4.881000000     0.224000000
O    -4.830000000    -5.024000000    -0.630000000
C    -4.098000000    -4.800000000     1.574000000
H    -5.149000000    -5.024000000     1.740000000
C    -3.224000000    -4.527000000     2.607000000
O    -3.680000000    -4.534000000     3.857000000
C    -2.886000000    -4.208000000     4.923000000
C    -2.536000000    -2.854000000     5.056000000
H    -3.024000000    -2.129000000     4.409000000
C    -2.324000000    -5.143000000     5.744000000
H    -2.552000000    -6.195000000     5.595000000
C    -1.592000000    -4.759000000     6.840000000
H    -1.119000000    -5.509000000     7.469000000
C    -1.336000000    -3.371000000     7.051000000
H    -0.685000000    -3.012000000     7.843000000
C    -1.810000000    -2.424000000     6.159000000
O    -1.711000000    -1.056000000     6.459000000
C    -0.916000000    -0.214000000     5.791000000
C    -1.262000000     1.109000000     6.026000000
H    -2.138000000     1.229000000     6.659000000
C    -0.481000000     2.118000000     5.501000000
O    -0.640000000     3.396000000     5.887000000
C     0.023000000     4.515000000     5.256000000
C    -0.502000000     4.995000000     4.097000000
H    -1.316000000     4.488000000     3.585000000
C     1.114000000     5.096000000     5.812000000
H     1.507000000     4.681000000     6.737000000
C     1.640000000     6.299000000     5.347000000
H     2.296000000     6.874000000     5.997000000
C     1.131000000     6.790000000     4.130000000
H     1.530000000     7.682000000     3.654000000
C     0.099000000     6.110000000     3.483000000
O    -0.380000000     6.591000000     2.350000000
C    -0.282000000     6.011000000     1.064000000
C    -1.308000000     6.218000000     0.195000000
H    -2.281000000     6.647000000     0.419000000
C    -1.243000000     5.624000000    -1.073000000
O    -2.345000000     5.794000000    -1.929000000
C    -2.311000000     5.437000000    -3.288000000
C    -2.991000000     4.306000000    -3.747000000
H    -3.504000000     3.675000000    -3.027000000
C    -1.662000000     6.262000000    -4.219000000
H    -1.214000000     7.209000000    -3.930000000
C    -1.662000000     5.882000000    -5.566000000
H    -1.130000000     6.491000000    -6.292000000
C    -2.299000000     4.694000000    -5.994000000
H    -2.281000000     4.359000000    -7.028000000
C    -2.990000000     3.905000000    -5.103000000
O    -3.603000000     2.684000000    -5.535000000
C    -3.263000000     1.450000000    -5.001000000
C    -4.305000000     0.536000000    -4.715000000
H    -5.306000000     0.825000000    -5.023000000
C    -4.033000000    -0.758000000    -4.328000000
O    -5.007000000    -1.697000000    -4.303000000
C    -4.967000000    -3.022000000    -3.802000000
C    -5.015000000    -4.071000000    -4.698000000
H    -5.169000000    -3.827000000    -5.746000000
C    -4.936000000    -5.381000000    -4.243000000
H    -5.170000000    -6.245000000    -4.859000000
C    -4.879000000    -5.590000000    -2.907000000
H    -4.822000000    -6.595000000    -2.498000000
C    -4.792000000    -4.601000000    -1.929000000
C    -4.946000000    -3.275000000    -2.401000000
H    -4.974000000    -2.441000000    -1.705000000
C    -2.370000000    -0.629000000     0.933000000
H    -3.153000000    -1.353000000     0.723000000
C    -1.269000000    -0.683000000     0.123000000
H    -1.121000000    -1.481000000    -0.600000000
C    -0.248000000     0.270000000     0.263000000
H     0.624000000     0.165000000    -0.390000000
C    -0.298000000     1.241000000     1.251000000
H     0.536000000     1.931000000     1.354000000
C    -1.422000000     1.233000000     2.079000000
H    -1.391000000     1.925000000     2.917000000
C    -2.463000000     0.383000000     1.863000000
C    -3.664000000     0.288000000     2.861000000
O    -3.958000000     1.170000000     3.671000000
O    -4.523000000    -0.588000000     2.780000000
O    -5.762000000    -2.321000000     4.216000000
H    -5.212000000    -1.580000000     3.963000000
H    -5.187000000    -3.083000000     4.141000000
O    -7.070000000     0.702000000     6.848000000
H    -6.619000000     1.528000000     6.673000000
H    -6.658000000     0.074000000     6.255000000
O    -3.350000000     6.327000000     2.672000000
H    -2.895000000     7.034000000     3.130000000
H    -4.264000000     6.417000000     2.941000000
O    -4.095000000     3.811000000     4.187000000
H    -3.974000000     2.864000000     4.115000000
H    -4.164000000     4.113000000     3.281000000
O    -3.288000000     6.317000000     5.874000000
H    -3.730000000     5.548000000     5.513000000
H    -3.217000000     6.921000000     5.135000000
O    -6.032000000     6.270000000     3.560000000
H    -6.462000000     5.670000000     2.951000000
H    -6.336000000     5.993000000     4.424000000
O    -8.824000000    -0.273000000    -0.290000000
H    -8.106000000    -0.421000000     0.325000000
H    -9.427000000     0.303000000     0.181000000
O    -6.761000000     1.469000000     3.500000000
H    -7.186000000     0.832000000     2.925000000
H    -5.849000000     1.180000000     3.545000000
O    -5.685000000     3.070000000     6.832000000
H    -5.159000000     3.351000000     7.581000000
H    -5.064000000     3.030000000     6.105000000
O    -3.983000000     3.913000000     0.016000000
H    -3.030000000     3.997000000     0.010000000
H    -4.302000000     4.790000000    -0.199000000
O    -7.930000000     2.944000000    -0.056000000
H    -8.611000000     2.281000000    -0.162000000
H    -7.120000000     2.443000000     0.040000000
O    -4.455000000    -1.257000000     9.291000000
H    -5.073000000    -0.868000000     9.909000000
H    -4.970000000    -1.403000000     8.497000000
O    -6.085000000    -2.645000000     7.035000000
H    -6.027000000    -2.693000000     6.081000000
H    -6.015000000    -3.554000000     7.325000000
O    -6.584000000    -1.255000000     1.349000000
H    -6.853000000    -2.101000000     1.707000000
H    -5.786000000    -1.035000000     1.829000000
O    -5.333000000     1.869000000     0.890000000
H    -5.635000000     1.937000000     1.796000000
H    -4.814000000     2.661000000     0.751000000
O    -9.518000000     1.533000000     6.149000000
H    -8.644000000     1.148000000     6.080000000
H    -9.535000000     2.210000000     5.473000000
O    -7.431000000    -3.625000000     2.826000000
H    -8.231000000    -3.740000000     3.339000000
H    -6.868000000    -3.083000000     3.379000000
O    -7.177000000     3.946000000     2.506000000
H    -6.928000000     3.130000000     2.942000000
H    -7.514000000     3.669000000     1.654000000
O    -5.632000000     0.092000000    -1.155000000
H    -5.310000000     0.933000000    -0.833000000
H    -5.775000000    -0.429000000    -0.365000000
