215
-1470.02105
C     2.094000000     2.284000000     4.147000000
H     2.759000000     2.934000000     3.585000000
C     2.101000000     0.917000000     4.068000000
C     1.264000000     0.224000000     4.864000000
H     1.184000000    -0.860000000     4.885000000
C     2.905000000     0.263000000     3.022000000
O     4.110000000     1.025000000     2.705000000
H     2.231000000     0.119000000     2.165000000
O     3.318000000    -1.037000000     3.507000000
C     3.091000000    -2.057000000     2.580000000
C     2.009000000    -2.947000000     2.670000000
H     1.308000000    -2.829000000     3.492000000
C     1.762000000    -3.886000000     1.675000000
O     0.509000000    -4.519000000     1.694000000
C     2.622000000    -3.924000000     0.575000000
C     2.378000000    -4.910000000    -0.602000000
H     3.328000000    -5.176000000    -1.069000000
C     1.303000000    -4.322000000    -1.501000000
C     1.825000000    -3.620000000    -2.588000000
H     2.896000000    -3.583000000    -2.768000000
H     2.069000000    -5.840000000    -0.121000000
C     3.818000000    -3.138000000     0.579000000
H     4.633000000    -3.300000000    -0.121000000
C     3.965000000    -2.169000000     1.509000000
C     5.204000000    -1.253000000     1.307000000
H     6.020000000    -1.692000000     0.730000000
H     5.658000000    -1.133000000     2.293000000
C     4.826000000     0.046000000     0.660000000
C     4.812000000     0.119000000    -0.736000000
H     5.211000000    -0.742000000    -1.267000000
C     4.251000000     1.127000000     1.348000000
C     3.964000000     2.271000000     0.645000000
H     3.605000000     3.126000000     1.212000000
C     3.984000000     2.337000000    -0.755000000
O     3.427000000     3.428000000    -1.394000000
C     2.085000000     3.340000000    -1.763000000
C     1.267000000     4.574000000    -1.435000000
C     0.063000000     4.694000000    -2.096000000
H    -0.213000000     3.996000000    -2.882000000
C     1.515000000     5.297000000    -0.263000000
H     2.492000000     5.254000000     0.210000000
O     1.883000000     2.974000000    -3.110000000
H     1.584000000     2.580000000    -1.145000000
C     4.450000000     1.273000000    -1.460000000
C     4.389000000     1.313000000    -2.994000000
H     5.177000000     0.647000000    -3.352000000
H     4.674000000     2.247000000    -3.483000000
C     3.096000000     0.810000000    -3.501000000
C     3.016000000    -0.510000000    -3.997000000
H     3.890000000    -1.143000000    -3.870000000
C     1.968000000     1.666000000    -3.540000000
C     0.807000000     1.140000000    -4.066000000
H    -0.055000000     1.796000000    -4.151000000
C     0.732000000    -0.161000000    -4.543000000
O    -0.537000000    -0.549000000    -4.943000000
C    -1.284000000    -1.291000000    -3.964000000
C    -2.720000000    -0.806000000    -3.918000000
C    -3.076000000     0.538000000    -4.029000000
H    -2.365000000     1.350000000    -4.157000000
C    -3.831000000    -1.779000000    -3.701000000
H    -3.601000000    -2.810000000    -3.444000000
O    -1.241000000    -2.733000000    -4.233000000
H    -0.839000000    -1.155000000    -2.967000000
C     1.841000000    -1.010000000    -4.503000000
C     1.657000000    -2.546000000    -4.854000000
H     2.591000000    -3.063000000    -5.085000000
H     0.997000000    -2.816000000    -5.680000000
C     1.006000000    -3.223000000    -3.652000000
C    -0.371000000    -3.340000000    -3.477000000
C    -0.859000000    -3.961000000    -2.363000000
H    -1.907000000    -3.975000000    -2.074000000
C    -0.075000000    -4.519000000    -1.350000000
O    -0.658000000    -4.888000000    -0.159000000
C    -0.484000000    -3.944000000     0.862000000
H    -0.180000000    -2.970000000     0.453000000
C    -1.748000000    -3.802000000     1.667000000
C    -1.734000000    -3.821000000     3.121000000
H    -0.763000000    -3.939000000     3.594000000
C    -2.965000000    -3.605000000     1.055000000
H    -3.127000000    -3.581000000    -0.020000000
C    -4.146000000    -3.478000000     1.820000000
O    -5.392000000    -3.380000000     1.223000000
C    -4.124000000    -3.449000000     3.202000000
H    -5.046000000    -3.344000000     3.768000000
C    -2.931000000    -3.688000000     3.862000000
O    -2.926000000    -3.739000000     5.224000000
C    -1.900000000    -3.088000000     5.859000000
C    -1.714000000    -1.656000000     5.868000000
H    -2.248000000    -0.970000000     5.216000000
C    -1.063000000    -3.922000000     6.528000000
H    -1.346000000    -4.968000000     6.612000000
C    -0.005000000    -3.407000000     7.268000000
H     0.689000000    -4.085000000     7.758000000
C     0.261000000    -2.045000000     7.249000000
H     1.112000000    -1.632000000     7.784000000
C    -0.664000000    -1.160000000     6.659000000
O    -0.477000000     0.190000000     6.645000000
C     0.443000000     0.850000000     5.801000000
C     0.524000000     2.223000000     5.934000000
H    -0.052000000     2.823000000     6.635000000
C     1.261000000     2.966000000     5.019000000
O     1.412000000     4.287000000     5.299000000
C     1.862000000     5.193000000     4.358000000
C     1.086000000     5.596000000     3.241000000
H     0.133000000     5.117000000     3.034000000
C     3.057000000     5.782000000     4.646000000
H     3.596000000     5.578000000     5.567000000
C     3.467000000     6.869000000     3.788000000
H     4.341000000     7.460000000     4.051000000
C     2.699000000     7.286000000     2.734000000
H     3.109000000     8.138000000     2.197000000
C     1.540000000     6.627000000     2.365000000
O     0.764000000     7.038000000     1.275000000
C     0.641000000     6.338000000     0.092000000
C    -0.473000000     6.611000000    -0.731000000
H    -1.147000000     7.448000000    -0.565000000
C    -0.778000000     5.752000000    -1.785000000
O    -2.018000000     5.859000000    -2.439000000
C    -2.406000000     5.110000000    -3.550000000
C    -3.421000000     4.170000000    -3.448000000
H    -3.888000000     4.142000000    -2.467000000
C    -1.695000000     5.184000000    -4.756000000
H    -0.920000000     5.945000000    -4.805000000
C    -2.082000000     4.367000000    -5.854000000
H    -1.537000000     4.436000000    -6.792000000
C    -3.066000000     3.390000000    -5.713000000
H    -3.368000000     2.730000000    -6.521000000
C    -3.804000000     3.340000000    -4.518000000
O    -4.722000000     2.321000000    -4.202000000
C    -4.381000000     0.996000000    -3.952000000
C    -5.399000000     0.064000000    -3.886000000
H    -6.413000000     0.453000000    -3.919000000
C    -5.154000000    -1.303000000    -3.754000000
O    -6.192000000    -2.094000000    -3.463000000
C    -6.178000000    -3.016000000    -2.457000000
C    -6.481000000    -4.368000000    -2.775000000
H    -6.785000000    -4.612000000    -3.790000000
C    -6.528000000    -5.302000000    -1.764000000
H    -6.995000000    -6.243000000    -2.044000000
C    -6.138000000    -4.961000000    -0.412000000
H    -6.307000000    -5.644000000     0.416000000
C    -5.697000000    -3.671000000    -0.143000000
C    -5.660000000    -2.650000000    -1.158000000
H    -5.376000000    -1.611000000    -1.016000000
C    -2.258000000     0.472000000    -0.201000000
H    -3.155000000    -0.026000000    -0.560000000
C    -1.044000000    -0.239000000    -0.160000000
H    -0.945000000    -1.278000000    -0.464000000
C     0.121000000     0.420000000     0.270000000
H     1.077000000    -0.052000000     0.311000000
C    -0.019000000     1.699000000     0.773000000
H     0.911000000     2.125000000     1.142000000
C    -1.254000000     2.440000000     0.735000000
H    -1.242000000     3.480000000     1.050000000
C    -2.429000000     1.851000000     0.248000000
C    -3.741000000     2.589000000     0.221000000
O    -3.854000000     3.575000000     0.963000000
O    -4.710000000     2.152000000    -0.347000000
O    -8.490000000     2.106000000    -0.855000000
H    -9.441000000     2.020000000    -0.783000000
H    -8.349000000     3.025000000    -1.082000000
O    -6.057000000     3.330000000    -2.071000000
H    -5.674000000     3.041000000    -2.899000000
H    -5.515000000     2.917000000    -1.399000000
O    -6.072000000     2.992000000     2.461000000
H    -6.654000000     2.979000000     1.702000000
H    -5.248000000     3.345000000     2.125000000
O    -3.921000000     7.825000000     0.019000000
H    -4.539000000     8.548000000     0.121000000
H    -4.019000000     7.552000000    -0.893000000
O    -2.225000000     4.886000000     4.806000000
H    -2.532000000     5.544000000     5.429000000
H    -2.499000000     5.219000000     3.951000000
O    -8.642000000    -1.087000000    -0.006000000
H    -8.251000000    -1.475000000     0.776000000
H    -7.940000000    -0.561000000    -0.389000000
O    -7.477000000     7.121000000     0.931000000
H    -8.408000000     6.939000000     1.061000000
H    -7.097000000     6.274000000     0.699000000
O    -2.320000000     2.332000000     4.151000000
H    -1.741000000     2.160000000     3.408000000
H    -2.140000000     3.242000000     4.388000000
O    -4.907000000     2.953000000     5.179000000
H    -5.403000000     3.068000000     4.368000000
H    -4.082000000     2.555000000     4.900000000
O    -9.333000000     5.060000000     1.393000000
H    -9.196000000     4.119000000     1.501000000
H    -9.062000000     5.439000000     2.229000000
O    -2.216000000     8.735000000     1.717000000
H    -2.273000000     8.339000000     2.587000000
H    -2.983000000     8.401000000     1.251000000
O    -7.593000000     4.999000000     3.704000000
H    -7.200000000     4.188000000     3.384000000
H    -6.885000000     5.642000000     3.660000000
O    -6.597000000     0.474000000    -0.193000000
H    -5.796000000     0.912000000    -0.480000000
H    -7.290000000     1.116000000    -0.348000000
O    -6.038000000     4.870000000     0.136000000
H    -5.224000000     4.569000000     0.539000000
H    -6.107000000     4.362000000    -0.672000000
O    -8.992000000     2.407000000     1.809000000
H    -9.579000000     2.108000000     2.504000000
H    -9.085000000     1.751000000     1.119000000
O    -9.158000000     4.707000000    -1.419000000
H    -8.679000000     5.400000000    -1.873000000
H    -9.078000000     4.927000000    -0.491000000
O    -6.421000000    -0.142000000     2.836000000
H    -6.345000000     0.810000000     2.774000000
H    -5.964000000    -0.469000000     2.060000000
O    -5.112000000     6.695000000     3.807000000
H    -4.594000000     6.248000000     3.137000000
H    -4.486000000     7.267000000     4.251000000
O    -3.143000000     5.882000000     2.185000000
H    -2.549000000     6.477000000     1.727000000
H    -3.426000000     5.262000000     1.513000000
