215
-1472.89736
C     1.548000000     2.476000000     4.430000000
H     2.101000000     2.924000000     3.609000000
C     1.564000000     1.064000000     4.453000000
C     0.733000000     0.385000000     5.382000000
H     0.651000000    -0.692000000     5.265000000
C     2.453000000     0.292000000     3.527000000
O     3.707000000     0.921000000     3.193000000
H     1.850000000     0.241000000     2.608000000
O     2.717000000    -1.004000000     4.021000000
C     2.604000000    -2.109000000     3.154000000
C     1.462000000    -2.914000000     3.289000000
H     0.676000000    -2.703000000     4.010000000
C     1.256000000    -3.885000000     2.324000000
O     0.027000000    -4.363000000     2.253000000
C     2.166000000    -4.162000000     1.322000000
C     1.876000000    -5.174000000     0.284000000
H     2.851000000    -5.634000000     0.112000000
C     1.301000000    -4.549000000    -0.965000000
C     2.047000000    -4.093000000    -2.071000000
H     3.124000000    -4.235000000    -2.067000000
H     1.214000000    -5.982000000     0.604000000
C     3.387000000    -3.455000000     1.316000000
H     4.219000000    -3.785000000     0.699000000
C     3.563000000    -2.424000000     2.160000000
C     4.805000000    -1.576000000     2.039000000
H     5.600000000    -2.109000000     1.513000000
H     5.293000000    -1.265000000     2.965000000
C     4.581000000    -0.290000000     1.237000000
C     4.891000000    -0.283000000    -0.089000000
H     5.196000000    -1.221000000    -0.547000000
C     4.140000000     0.879000000     1.877000000
C     3.959000000     2.008000000     1.078000000
H     3.557000000     2.895000000     1.562000000
C     4.170000000     1.984000000    -0.291000000
O     3.696000000     3.092000000    -1.034000000
C     2.454000000     2.887000000    -1.792000000
C     1.535000000     4.096000000    -1.604000000
C     0.833000000     4.680000000    -2.712000000
H     1.021000000     4.333000000    -3.725000000
C     1.258000000     4.600000000    -0.333000000
H     1.848000000     4.203000000     0.490000000
O     2.827000000     2.598000000    -3.138000000
H     1.888000000     2.016000000    -1.433000000
C     4.712000000     0.864000000    -0.892000000
C     4.942000000     0.738000000    -2.368000000
H     5.744000000     0.036000000    -2.606000000
H     5.429000000     1.663000000    -2.681000000
C     3.730000000     0.345000000    -3.210000000
C     3.491000000    -0.993000000    -3.452000000
H     4.228000000    -1.684000000    -3.050000000
C     2.714000000     1.307000000    -3.569000000
C     1.584000000     0.868000000    -4.242000000
H     0.787000000     1.570000000    -4.473000000
C     1.424000000    -0.470000000    -4.518000000
O     0.160000000    -0.758000000    -4.875000000
C    -0.730000000    -1.218000000    -3.860000000
C    -2.159000000    -0.554000000    -4.036000000
C    -2.271000000     0.831000000    -4.192000000
H    -1.468000000     1.550000000    -4.047000000
C    -3.270000000    -1.405000000    -4.060000000
H    -3.189000000    -2.477000000    -3.901000000
O    -0.670000000    -2.693000000    -4.118000000
H    -0.455000000    -0.955000000    -2.828000000
C     2.412000000    -1.430000000    -4.210000000
C     2.181000000    -2.878000000    -4.364000000
H     3.091000000    -3.473000000    -4.470000000
H     1.547000000    -3.050000000    -5.236000000
C     1.433000000    -3.532000000    -3.220000000
C     0.055000000    -3.390000000    -3.160000000
C    -0.685000000    -3.833000000    -2.098000000
H    -1.752000000    -3.630000000    -2.150000000
C    -0.030000000    -4.409000000    -1.005000000
O    -0.860000000    -4.768000000     0.082000000
C    -0.755000000    -3.829000000     1.126000000
H    -0.347000000    -2.865000000     0.789000000
C    -2.117000000    -3.409000000     1.598000000
C    -2.348000000    -3.069000000     2.959000000
H    -1.595000000    -3.228000000     3.727000000
C    -3.231000000    -3.360000000     0.774000000
H    -3.166000000    -3.567000000    -0.291000000
C    -4.501000000    -2.998000000     1.304000000
O    -5.630000000    -3.093000000     0.506000000
C    -4.708000000    -2.647000000     2.603000000
H    -5.704000000    -2.430000000     2.979000000
C    -3.608000000    -2.642000000     3.429000000
O    -3.776000000    -2.413000000     4.728000000
C    -2.859000000    -2.278000000     5.680000000
C    -2.383000000    -1.015000000     6.033000000
H    -2.746000000    -0.183000000     5.435000000
C    -2.255000000    -3.341000000     6.262000000
H    -2.539000000    -4.348000000     5.964000000
C    -1.098000000    -3.214000000     7.025000000
H    -0.550000000    -4.107000000     7.314000000
C    -0.621000000    -1.921000000     7.374000000
H     0.285000000    -1.868000000     7.973000000
C    -1.363000000    -0.831000000     6.951000000
O    -0.863000000     0.360000000     7.242000000
C    -0.034000000     0.999000000     6.339000000
C     0.053000000     2.411000000     6.351000000
H    -0.532000000     2.937000000     7.101000000
C     0.767000000     3.134000000     5.403000000
O     0.819000000     4.538000000     5.397000000
C     1.324000000     5.292000000     4.375000000
C     0.543000000     5.531000000     3.258000000
H    -0.446000000     5.098000000     3.140000000
C     2.615000000     5.802000000     4.433000000
H     3.250000000     5.541000000     5.276000000
C     3.134000000     6.564000000     3.359000000
H     4.145000000     6.935000000     3.505000000
C     2.381000000     6.635000000     2.199000000
H     2.764000000     7.210000000     1.360000000
C     1.083000000     6.217000000     2.201000000
O     0.231000000     6.273000000     1.098000000
C     0.422000000     5.728000000    -0.139000000
C    -0.358000000     6.139000000    -1.163000000
H    -1.113000000     6.919000000    -1.103000000
C    -0.117000000     5.675000000    -2.470000000
O    -0.805000000     6.247000000    -3.505000000
C    -1.316000000     5.368000000    -4.436000000
C    -2.331000000     4.493000000    -4.071000000
H    -2.849000000     4.513000000    -3.115000000
C    -0.823000000     5.297000000    -5.786000000
H    -0.050000000     6.007000000    -6.069000000
C    -1.216000000     4.312000000    -6.679000000
H    -0.853000000     4.378000000    -7.701000000
C    -2.194000000     3.391000000    -6.252000000
H    -2.460000000     2.512000000    -6.833000000
C    -2.748000000     3.498000000    -4.939000000
O    -3.794000000     2.669000000    -4.523000000
C    -3.616000000     1.329000000    -4.313000000
C    -4.735000000     0.494000000    -4.261000000
H    -5.735000000     0.915000000    -4.337000000
C    -4.540000000    -0.844000000    -4.180000000
O    -5.585000000    -1.688000000    -4.036000000
C    -5.666000000    -2.755000000    -3.147000000
C    -6.295000000    -3.942000000    -3.508000000
H    -6.664000000    -4.030000000    -4.526000000
C    -6.583000000    -4.883000000    -2.543000000
H    -7.137000000    -5.713000000    -2.975000000
C    -6.274000000    -4.691000000    -1.219000000
H    -6.597000000    -5.414000000    -0.475000000
C    -5.783000000    -3.454000000    -0.826000000
C    -5.425000000    -2.527000000    -1.798000000
H    -5.103000000    -1.533000000    -1.499000000
C    -2.144000000     0.375000000     0.460000000
H    -3.026000000    -0.206000000     0.202000000
C    -0.939000000    -0.114000000    -0.054000000
H    -0.938000000    -0.999000000    -0.686000000
C     0.217000000     0.491000000     0.422000000
H     1.160000000     0.085000000     0.219000000
C     0.185000000     1.584000000     1.236000000
H     1.137000000     2.002000000     1.553000000
C    -1.042000000     2.103000000     1.682000000
H    -0.986000000     2.923000000     2.393000000
C    -2.226000000     1.489000000     1.311000000
C    -3.494000000     2.037000000     1.900000000
O    -3.498000000     3.067000000     2.635000000
O    -4.535000000     1.398000000     1.720000000
O    -8.724000000     5.248000000     3.680000000
H    -7.800000000     5.004000000     3.626000000
H    -8.946000000     5.142000000     4.605000000
O    -5.340000000     1.857000000    -1.263000000
H    -4.722000000     1.673000000    -1.970000000
H    -5.001000000     1.366000000    -0.515000000
O    -5.908000000     4.097000000     3.941000000
H    -5.169000000     3.741000000     3.449000000
H    -5.788000000     3.763000000     4.830000000
O    -4.297000000     6.312000000     0.096000000
H    -3.702000000     6.392000000     0.842000000
H    -4.701000000     5.450000000     0.204000000
O    -4.634000000     6.798000000     4.454000000
H    -4.752000000     7.311000000     5.254000000
H    -5.041000000     5.954000000     4.649000000
O    -5.933000000     3.579000000     6.923000000
H    -6.668000000     3.332000000     7.485000000
H    -5.229000000     3.800000000     7.533000000
O    -2.820000000     3.229000000     5.032000000
H    -2.936000000     3.123000000     4.088000000
H    -3.272000000     2.477000000     5.415000000
O    -4.810000000     1.200000000     5.940000000
H    -5.093000000     0.839000000     5.100000000
H    -5.461000000     1.873000000     6.142000000
O    -2.013000000     5.781000000     6.146000000
H    -2.360000000     5.521000000     6.999000000
H    -2.068000000     4.988000000     5.612000000
O    -7.571000000     5.864000000     0.595000000
H    -6.873000000     5.212000000     0.651000000
H    -7.115000000     6.706000000     0.609000000
O    -1.692000000     8.003000000     4.099000000
H    -2.298000000     7.445000000     3.612000000
H    -1.468000000     7.492000000     4.877000000
O    -6.071000000     0.809000000     3.644000000
H    -5.413000000     0.949000000     2.963000000
H    -6.714000000     1.503000000     3.503000000
O    -5.603000000     4.023000000     0.706000000
H    -5.359000000     3.478000000     1.454000000
H    -5.890000000     3.399000000     0.039000000
O    -9.044000000     0.262000000     0.617000000
H    -9.028000000     0.714000000     1.460000000
H    -8.922000000     0.956000000    -0.030000000
O    -7.655000000    -0.967000000     5.119000000
H    -7.201000000    -0.706000000     4.318000000
H    -8.150000000    -0.190000000     5.379000000
O    -8.474000000     2.139000000     2.750000000
H    -8.546000000     3.084000000     2.613000000
H    -9.239000000     1.915000000     3.281000000
O    -9.107000000     3.557000000    -0.564000000
H    -8.762000000     3.431000000    -1.448000000
H    -8.560000000     4.249000000    -0.190000000
O    -3.099000000     5.929000000     2.498000000
H    -3.261000000     4.998000000     2.645000000
H    -3.788000000     6.373000000     2.993000000
O    -7.265000000     3.730000000    -2.537000000
H    -6.619000000     3.109000000    -2.200000000
H    -6.771000000     4.536000000    -2.681000000
