215
-1457.21895
C     1.768000000     2.038000000     3.630000000
H     1.804000000     2.435000000     2.619000000
C     2.377000000     0.834000000     3.773000000
C     2.224000000     0.251000000     5.061000000
H     2.697000000    -0.710000000     5.250000000
C     3.096000000     0.164000000     2.688000000
O     4.058000000     1.054000000     2.135000000
H     2.286000000    -0.031000000     1.970000000
O     3.682000000    -1.031000000     3.069000000
C     3.463000000    -2.102000000     2.337000000
C     2.423000000    -2.979000000     2.611000000
H     1.825000000    -2.846000000     3.509000000
C     2.077000000    -3.988000000     1.775000000
O     0.953000000    -4.727000000     2.118000000
C     2.754000000    -4.194000000     0.560000000
C     2.225000000    -5.217000000    -0.491000000
H     3.131000000    -5.333000000    -1.090000000
C     1.162000000    -4.641000000    -1.371000000
C     1.505000000    -4.138000000    -2.580000000
H     2.551000000    -4.197000000    -2.866000000
H     2.001000000    -6.170000000    -0.007000000
C     3.896000000    -3.320000000     0.331000000
H     4.510000000    -3.412000000    -0.561000000
C     4.181000000    -2.269000000     1.138000000
C     5.320000000    -1.257000000     0.789000000
H     6.054000000    -1.805000000     0.196000000
H     5.862000000    -0.826000000     1.633000000
C     4.722000000    -0.065000000     0.106000000
C     4.749000000    -0.054000000    -1.297000000
H     5.175000000    -0.910000000    -1.813000000
C     4.179000000     1.040000000     0.781000000
C     3.696000000     2.183000000     0.023000000
H     3.254000000     3.003000000     0.583000000
C     3.651000000     2.104000000    -1.343000000
O     3.133000000     3.134000000    -2.023000000
C     1.780000000     2.964000000    -2.630000000
C     0.835000000     4.131000000    -2.396000000
C    -0.185000000     4.521000000    -3.308000000
H    -0.259000000     3.981000000    -4.249000000
C     0.896000000     4.756000000    -1.102000000
H     1.607000000     4.367000000    -0.377000000
O     1.886000000     2.732000000    -4.067000000
H     1.341000000     2.058000000    -2.188000000
C     4.184000000     0.953000000    -2.021000000
C     4.113000000     0.973000000    -3.547000000
H     4.877000000     0.273000000    -3.894000000
H     4.439000000     1.952000000    -3.906000000
C     2.725000000     0.472000000    -3.965000000
C     2.514000000    -0.916000000    -4.186000000
H     3.333000000    -1.613000000    -4.031000000
C     1.732000000     1.355000000    -4.349000000
C     0.484000000     0.887000000    -4.750000000
H    -0.304000000     1.614000000    -4.927000000
C     0.272000000    -0.464000000    -4.862000000
O    -1.026000000    -0.854000000    -5.057000000
C    -1.770000000    -1.294000000    -3.843000000
C    -3.166000000    -0.640000000    -3.645000000
C    -3.528000000     0.446000000    -4.449000000
H    -2.961000000     0.585000000    -5.366000000
C    -3.953000000    -1.087000000    -2.588000000
H    -3.605000000    -1.883000000    -1.934000000
O    -1.754000000    -2.748000000    -3.624000000
H    -1.278000000    -0.860000000    -2.959000000
C     1.314000000    -1.354000000    -4.650000000
C     1.030000000    -2.895000000    -4.778000000
H     2.022000000    -3.270000000    -5.038000000
H     0.264000000    -3.126000000    -5.521000000
C     0.559000000    -3.440000000    -3.383000000
C    -0.747000000    -3.298000000    -2.896000000
C    -1.041000000    -3.723000000    -1.626000000
H    -2.048000000    -3.557000000    -1.251000000
C    -0.107000000    -4.389000000    -0.882000000
O    -0.552000000    -4.913000000     0.327000000
C    -0.230000000    -4.202000000     1.544000000
H    -0.015000000    -3.179000000     1.201000000
C    -1.313000000    -3.975000000     2.608000000
C    -0.961000000    -3.951000000     4.018000000
H     0.095000000    -4.094000000     4.229000000
C    -2.628000000    -3.714000000     2.235000000
H    -2.892000000    -3.570000000     1.190000000
C    -3.545000000    -3.407000000     3.251000000
O    -4.808000000    -2.947000000     2.925000000
C    -3.198000000    -3.589000000     4.599000000
H    -3.936000000    -3.373000000     5.368000000
C    -1.908000000    -3.766000000     5.009000000
O    -1.547000000    -3.731000000     6.286000000
C    -0.424000000    -3.089000000     6.718000000
C    -0.275000000    -1.699000000     6.640000000
H    -1.042000000    -1.039000000     6.242000000
C     0.642000000    -3.910000000     7.210000000
H     0.450000000    -4.966000000     7.381000000
C     1.860000000    -3.348000000     7.697000000
H     2.747000000    -3.900000000     7.995000000
C     1.935000000    -1.915000000     7.714000000
H     2.832000000    -1.445000000     8.108000000
C     0.895000000    -1.159000000     7.153000000
O     1.040000000     0.154000000     7.188000000
C     1.361000000     0.837000000     5.993000000
C     0.770000000     2.066000000     5.771000000
H     0.160000000     2.561000000     6.522000000
C     1.032000000     2.705000000     4.581000000
O     0.379000000     3.874000000     4.262000000
C     0.900000000     4.879000000     3.483000000
C     0.204000000     5.313000000     2.327000000
H    -0.796000000     4.942000000     2.117000000
C     2.182000000     5.316000000     3.721000000
H     2.714000000     4.818000000     4.528000000
C     2.830000000     6.245000000     2.845000000
H     3.799000000     6.626000000     3.159000000
C     2.155000000     6.604000000     1.716000000
H     2.544000000     7.417000000     1.107000000
C     0.927000000     6.113000000     1.400000000
O     0.219000000     6.593000000     0.296000000
C     0.031000000     5.829000000    -0.807000000
C    -0.844000000     6.225000000    -1.849000000
H    -1.461000000     7.096000000    -1.645000000
C    -0.915000000     5.638000000    -3.024000000
O    -1.958000000     6.012000000    -3.851000000
C    -2.745000000     5.221000000    -4.665000000
C    -3.466000000     4.113000000    -4.211000000
H    -3.353000000     3.943000000    -3.143000000
C    -2.875000000     5.668000000    -5.963000000
H    -2.220000000     6.502000000    -6.204000000
C    -3.761000000     5.058000000    -6.830000000
H    -3.865000000     5.530000000    -7.803000000
C    -4.370000000     3.849000000    -6.439000000
H    -5.044000000     3.308000000    -7.099000000
C    -4.296000000     3.426000000    -5.119000000
O    -5.035000000     2.358000000    -4.698000000
C    -4.600000000     1.215000000    -4.024000000
C    -5.314000000     0.902000000    -2.889000000
H    -6.123000000     1.544000000    -2.550000000
C    -5.070000000    -0.319000000    -2.235000000
O    -5.589000000    -0.449000000    -0.954000000
C    -5.698000000    -1.683000000    -0.264000000
C    -6.132000000    -2.788000000    -0.980000000
H    -6.400000000    -2.619000000    -2.020000000
C    -6.318000000    -3.987000000    -0.327000000
H    -6.733000000    -4.821000000    -0.887000000
C    -5.877000000    -4.102000000     1.008000000
H    -6.046000000    -5.021000000     1.564000000
C    -5.315000000    -2.952000000     1.663000000
C    -5.256000000    -1.700000000     1.026000000
H    -4.904000000    -0.792000000     1.509000000
C    -1.265000000     1.782000000    -0.736000000
H    -1.434000000     2.310000000    -1.671000000
C    -0.417000000     0.690000000    -0.704000000
H     0.164000000     0.450000000    -1.591000000
C    -0.199000000    -0.012000000     0.453000000
H     0.526000000    -0.825000000     0.381000000
C    -0.758000000     0.376000000     1.661000000
H    -0.503000000    -0.212000000     2.539000000
C    -1.650000000     1.471000000     1.650000000
H    -2.046000000     1.842000000     2.592000000
C    -1.930000000     2.190000000     0.459000000
C    -2.996000000     3.281000000     0.491000000
O    -3.213000000     3.838000000     1.573000000
O    -3.770000000     3.451000000    -0.462000000
O    -4.913000000     6.825000000    -2.821000000
H    -5.510000000     7.460000000    -3.216000000
H    -4.062000000     7.020000000    -3.213000000
O    -8.094000000     6.442000000     3.121000000
H    -7.284000000     6.359000000     2.617000000
H    -8.738000000     6.761000000     2.488000000
O    -7.931000000     4.082000000     4.060000000
H    -8.181000000     4.978000000     3.836000000
H    -7.001000000     4.029000000     3.839000000
O    -7.959000000     4.510000000    -0.441000000
H    -7.121000000     4.529000000    -0.903000000
H    -7.762000000     4.860000000     0.427000000
O    -3.848000000     1.444000000     4.488000000
H    -4.313000000     1.945000000     3.819000000
H    -3.786000000     2.040000000     5.235000000
O    -2.347000000     7.578000000     1.439000000
H    -1.744000000     7.931000000     0.785000000
H    -2.993000000     7.087000000     0.931000000
O    -5.780000000     1.864000000     0.498000000
H    -5.410000000     1.186000000    -0.068000000
H    -5.209000000     2.622000000     0.368000000
O    -2.994000000     3.879000000     6.827000000
H    -3.728000000     4.491000000     6.779000000
H    -2.696000000     3.791000000     5.922000000
O    -6.269000000     6.768000000     1.115000000
H    -5.469000000     6.558000000     0.633000000
H    -6.610000000     7.551000000     0.683000000
O    -2.563000000     6.739000000     3.989000000
H    -2.504000000     5.790000000     4.101000000
H    -2.498000000     6.873000000     3.044000000
O    -2.440000000     4.038000000     4.146000000
H    -2.778000000     3.794000000     3.284000000
H    -1.526000000     3.753000000     4.135000000
O    -4.853000000    -0.731000000     5.964000000
H    -4.474000000    -0.219000000     5.250000000
H    -4.142000000    -0.818000000     6.600000000
O    -7.218000000     4.624000000    -4.458000000
H    -6.733000000     4.106000000    -3.816000000
H    -8.095000000     4.710000000    -4.084000000
O    -5.748000000     4.271000000    -2.024000000
H    -5.002000000     4.085000000    -1.454000000
H    -5.566000000     5.140000000    -2.382000000
O    -7.016000000    -0.976000000     3.473000000
H    -6.883000000    -1.921000000     3.397000000
H    -6.346000000    -0.689000000     4.094000000
O   -10.010000000     2.866000000    -0.048000000
H    -9.268000000     3.393000000    -0.344000000
H   -10.524000000     3.461000000     0.497000000
O    -8.076000000     0.951000000     2.090000000
H    -7.631000000     1.425000000     1.387000000
H    -7.529000000     0.180000000     2.241000000
O    -4.051000000     6.209000000    -0.442000000
H    -4.233000000     6.487000000    -1.339000000
H    -3.782000000     5.294000000    -0.523000000
O    -5.474000000     3.575000000     2.837000000
H    -4.650000000     3.851000000     2.437000000
H    -5.838000000     2.938000000     2.222000000
