215
-1454.11691
C     2.700000000     2.680000000     3.529000000
H     3.141000000     3.266000000     2.727000000
C     2.747000000     1.274000000     3.451000000
C     2.129000000     0.556000000     4.416000000
H     1.993000000    -0.520000000     4.352000000
C     3.411000000     0.516000000     2.286000000
O     4.312000000     1.372000000     1.615000000
H     2.595000000     0.223000000     1.609000000
O     4.034000000    -0.645000000     2.752000000
C     3.814000000    -1.818000000     2.046000000
C     2.779000000    -2.636000000     2.485000000
H     2.207000000    -2.406000000     3.380000000
C     2.336000000    -3.652000000     1.653000000
O     1.267000000    -4.480000000     2.006000000
C     3.035000000    -3.949000000     0.459000000
C     2.450000000    -4.923000000    -0.564000000
H     3.237000000    -5.168000000    -1.282000000
C     1.262000000    -4.278000000    -1.277000000
C     1.386000000    -3.791000000    -2.572000000
H     2.371000000    -3.748000000    -3.028000000
H     2.185000000    -5.883000000    -0.117000000
C     4.062000000    -3.150000000     0.028000000
H     4.490000000    -3.429000000    -0.932000000
C     4.443000000    -2.046000000     0.734000000
C     5.458000000    -1.074000000     0.261000000
H     6.119000000    -1.651000000    -0.389000000
H     6.082000000    -0.841000000     1.126000000
C     4.702000000     0.020000000    -0.405000000
C     4.613000000    -0.055000000    -1.793000000
H     5.109000000    -0.870000000    -2.314000000
C     4.380000000     1.232000000     0.198000000
C     3.895000000     2.287000000    -0.495000000
H     3.611000000     3.191000000     0.038000000
C     3.723000000     2.182000000    -1.863000000
O     2.955000000     3.180000000    -2.412000000
C     1.620000000     2.815000000    -2.771000000
C     0.548000000     3.761000000    -2.296000000
C    -0.489000000     4.203000000    -3.117000000
H    -0.544000000     3.942000000    -4.171000000
C     0.597000000     4.315000000    -1.006000000
H     1.322000000     3.963000000    -0.276000000
O     1.573000000     2.621000000    -4.175000000
H     1.396000000     1.838000000    -2.319000000
C     4.071000000     0.997000000    -2.514000000
C     3.868000000     0.788000000    -4.051000000
H     4.492000000    -0.018000000    -4.442000000
H     4.079000000     1.723000000    -4.573000000
C     2.421000000     0.339000000    -4.321000000
C     2.065000000    -0.979000000    -4.467000000
H     2.870000000    -1.708000000    -4.429000000
C     1.440000000     1.311000000    -4.551000000
C     0.089000000     0.958000000    -4.773000000
H    -0.763000000     1.632000000    -4.817000000
C    -0.261000000    -0.344000000    -4.808000000
O    -1.627000000    -0.717000000    -4.771000000
C    -2.051000000    -1.215000000    -3.458000000
C    -3.433000000    -0.579000000    -3.092000000
C    -4.054000000     0.400000000    -3.890000000
H    -3.611000000     0.657000000    -4.849000000
C    -3.973000000    -0.879000000    -1.807000000
H    -3.541000000    -1.557000000    -1.075000000
O    -2.050000000    -2.648000000    -3.243000000
H    -1.335000000    -0.865000000    -2.701000000
C     0.745000000    -1.351000000    -4.806000000
C     0.429000000    -2.836000000    -4.751000000
H     1.162000000    -3.470000000    -5.255000000
H    -0.497000000    -3.028000000    -5.296000000
C     0.280000000    -3.339000000    -3.310000000
C    -0.977000000    -3.373000000    -2.722000000
C    -1.132000000    -3.904000000    -1.449000000
H    -2.157000000    -4.037000000    -1.113000000
C    -0.039000000    -4.388000000    -0.777000000
O    -0.333000000    -4.926000000     0.468000000
C     0.082000000    -4.020000000     1.544000000
H     0.121000000    -2.983000000     1.180000000
C    -0.970000000    -4.218000000     2.691000000
C    -0.530000000    -4.135000000     4.016000000
H     0.523000000    -4.174000000     4.284000000
C    -2.300000000    -4.174000000     2.442000000
H    -2.597000000    -4.013000000     1.409000000
C    -3.254000000    -4.088000000     3.500000000
O    -4.602000000    -3.786000000     3.294000000
C    -2.810000000    -3.959000000     4.785000000
H    -3.539000000    -3.816000000     5.578000000
C    -1.413000000    -3.963000000     5.024000000
O    -1.015000000    -3.754000000     6.314000000
C     0.048000000    -3.016000000     6.696000000
C     0.035000000    -1.698000000     6.324000000
H    -0.849000000    -1.225000000     5.904000000
C     1.145000000    -3.584000000     7.329000000
H     1.175000000    -4.646000000     7.559000000
C     2.269000000    -2.792000000     7.580000000
H     3.157000000    -3.234000000     8.024000000
C     2.246000000    -1.452000000     7.300000000
H     3.117000000    -0.808000000     7.391000000
C     1.135000000    -0.855000000     6.738000000
O     1.112000000     0.541000000     6.578000000
C     1.496000000     1.228000000     5.470000000
C     1.580000000     2.575000000     5.610000000
H     1.177000000     3.044000000     6.504000000
C     2.035000000     3.361000000     4.575000000
O     2.148000000     4.710000000     4.671000000
C     1.961000000     5.426000000     3.507000000
C     0.883000000     5.161000000     2.669000000
H     0.098000000     4.478000000     2.984000000
C     2.792000000     6.502000000     3.162000000
H     3.660000000     6.618000000     3.805000000
C     2.617000000     7.243000000     1.981000000
H     3.308000000     8.011000000     1.643000000
C     1.605000000     6.894000000     1.104000000
H     1.463000000     7.485000000     0.202000000
C     0.730000000     5.907000000     1.507000000
O    -0.434000000     5.726000000     0.744000000
C    -0.413000000     5.221000000    -0.551000000
C    -1.373000000     5.737000000    -1.484000000
H    -2.065000000     6.467000000    -1.071000000
C    -1.454000000     5.156000000    -2.720000000
O    -2.424000000     5.535000000    -3.552000000
C    -3.237000000     4.755000000    -4.329000000
C    -4.041000000     3.790000000    -3.744000000
H    -3.978000000     3.655000000    -2.667000000
C    -3.312000000     5.054000000    -5.678000000
H    -2.841000000     5.929000000    -6.118000000
C    -4.091000000     4.302000000    -6.563000000
H    -4.322000000     4.586000000    -7.587000000
C    -4.960000000     3.359000000    -5.991000000
H    -5.675000000     2.803000000    -6.593000000
C    -4.886000000     3.045000000    -4.624000000
O    -5.743000000     2.127000000    -4.111000000
C    -5.236000000     1.076000000    -3.400000000
C    -5.726000000     0.679000000    -2.165000000
H    -6.598000000     1.178000000    -1.750000000
C    -5.218000000    -0.363000000    -1.450000000
O    -5.773000000    -0.739000000    -0.235000000
C    -5.736000000    -2.018000000     0.269000000
C    -6.262000000    -3.121000000    -0.440000000
H    -6.645000000    -2.888000000    -1.430000000
C    -6.100000000    -4.407000000     0.079000000
H    -6.402000000    -5.270000000    -0.508000000
C    -5.585000000    -4.563000000     1.375000000
H    -5.563000000    -5.577000000     1.765000000
C    -5.061000000    -3.506000000     2.076000000
C    -5.118000000    -2.206000000     1.537000000
H    -4.738000000    -1.384000000     2.138000000
C    -1.402000000     2.422000000     2.145000000
H    -1.610000000     3.415000000     1.754000000
C    -0.521000000     1.590000000     1.430000000
H    -0.262000000     1.800000000     0.396000000
C    -0.277000000     0.309000000     1.934000000
H     0.366000000    -0.290000000     1.276000000
C    -0.937000000    -0.201000000     3.057000000
H    -0.751000000    -1.230000000     3.354000000
C    -1.759000000     0.723000000     3.774000000
H    -2.318000000     0.362000000     4.633000000
C    -1.996000000     2.067000000     3.335000000
C    -2.789000000     3.017000000     4.131000000
O    -3.353000000     2.609000000     5.165000000
O    -2.646000000     4.215000000     3.989000000
O    -1.957000000     8.580000000     5.896000000
H    -1.694000000     7.659000000     5.905000000
H    -1.438000000     8.984000000     6.591000000
O    -6.456000000     4.966000000     7.397000000
H    -5.953000000     5.393000000     6.704000000
H    -5.854000000     4.924000000     8.139000000
O    -3.833000000     3.599000000     7.702000000
H    -2.934000000     3.492000000     8.014000000
H    -3.839000000     3.179000000     6.842000000
O    -5.035000000     3.471000000    10.245000000
H    -4.273000000     3.254000000    10.781000000
H    -4.678000000     3.622000000     9.370000000
O    -8.300000000     5.146000000     2.665000000
H    -8.455000000     5.669000000     1.879000000
H    -7.347000000     5.133000000     2.760000000
O    -1.269000000     3.257000000     8.236000000
H    -0.862000000     2.422000000     8.467000000
H    -0.751000000     3.913000000     8.702000000
O    -3.726000000     9.162000000     2.146000000
H    -4.560000000     8.906000000     1.753000000
H    -3.547000000     8.481000000     2.794000000
O    -4.923000000     0.735000000     6.246000000
H    -4.697000000     1.570000000     5.836000000
H    -4.191000000     0.552000000     6.836000000
O    -2.971000000    -0.086000000     8.262000000
H    -2.625000000    -0.903000000     8.620000000
H    -2.414000000     0.595000000     8.638000000
O    -4.024000000     5.740000000     6.054000000
H    -3.814000000     5.166000000     6.791000000
H    -3.516000000     5.386000000     5.324000000
O    -4.735000000     8.303000000     4.883000000
H    -3.817000000     8.574000000     4.905000000
H    -4.776000000     7.546000000     5.467000000
O    -0.819000000     5.459000000     5.967000000
H    -1.036000000     5.079000000     5.116000000
H    -0.960000000     4.747000000     6.591000000
O     1.786000000     6.430000000     7.025000000
H     2.422000000     5.727000000     7.155000000
H     1.091000000     6.030000000     6.501000000
O    -7.434000000     2.246000000     1.898000000
H    -8.066000000     2.752000000     2.409000000
H    -6.697000000     2.112000000     2.494000000
O    -7.708000000     3.176000000     5.900000000
H    -7.285000000     3.629000000     6.629000000
H    -7.067000000     3.216000000     5.190000000
O    -6.530000000    -0.488000000     4.280000000
H    -5.774000000    -0.411000000     4.861000000
H    -7.060000000     0.286000000     4.472000000
O    -3.090000000     6.249000000     2.252000000
H    -2.392000000     6.436000000     1.624000000
H    -2.698000000     5.632000000     2.870000000
O    -5.692000000     5.842000000     3.245000000
H    -5.836000000     6.671000000     3.702000000
H    -4.790000000     5.898000000     2.929000000
O    -5.744000000     3.299000000     4.055000000
H    -4.868000000     3.179000000     4.421000000
H    -5.773000000     4.221000000     3.800000000
