215
-1435.98926
C     3.483000000     1.465000000     2.963000000
H     3.449000000     2.104000000     2.084000000
C     3.856000000     0.137000000     2.858000000
C     3.804000000    -0.695000000     4.031000000
H     4.029000000    -1.758000000     4.008000000
C     4.199000000    -0.506000000     1.516000000
O     5.070000000     0.196000000     0.763000000
H     3.229000000    -0.468000000     0.998000000
O     4.636000000    -1.911000000     1.596000000
C     3.969000000    -2.858000000     0.840000000
C     2.955000000    -3.529000000     1.481000000
H     2.679000000    -3.291000000     2.505000000
C     2.089000000    -4.320000000     0.692000000
O     0.998000000    -4.773000000     1.376000000
C     2.316000000    -4.496000000    -0.710000000
C     1.248000000    -5.274000000    -1.516000000
H     1.810000000    -5.718000000    -2.341000000
C     0.072000000    -4.374000000    -1.935000000
C     0.030000000    -3.785000000    -3.222000000
H     0.843000000    -3.939000000    -3.927000000
H     0.833000000    -6.119000000    -0.963000000
C     3.417000000    -3.820000000    -1.268000000
H     3.565000000    -3.973000000    -2.334000000
C     4.213000000    -2.940000000    -0.522000000
C     5.248000000    -2.076000000    -1.264000000
H     5.533000000    -2.555000000    -2.203000000
H     6.159000000    -1.956000000    -0.674000000
C     4.728000000    -0.713000000    -1.602000000
C     4.106000000    -0.525000000    -2.886000000
H     4.151000000    -1.392000000    -3.540000000
C     4.659000000     0.298000000    -0.589000000
C     4.109000000     1.486000000    -0.985000000
H     3.934000000     2.288000000    -0.271000000
C     3.516000000     1.728000000    -2.247000000
O     2.861000000     2.932000000    -2.459000000
C     1.401000000     3.082000000    -2.709000000
C     0.800000000     4.320000000    -2.046000000
C    -0.335000000     4.857000000    -2.574000000
H    -0.649000000     4.457000000    -3.535000000
C     1.196000000     4.755000000    -0.810000000
H     2.032000000     4.259000000    -0.323000000
O     1.017000000     2.971000000    -4.073000000
H     0.877000000     2.266000000    -2.189000000
C     3.460000000     0.635000000    -3.196000000
C     2.951000000     0.878000000    -4.606000000
H     3.427000000     0.159000000    -5.276000000
H     3.166000000     1.884000000    -4.972000000
C     1.434000000     0.642000000    -4.747000000
C     0.919000000    -0.637000000    -5.071000000
H     1.550000000    -1.522000000    -5.062000000
C     0.553000000     1.694000000    -4.494000000
C    -0.819000000     1.474000000    -4.435000000
H    -1.497000000     2.216000000    -4.021000000
C    -1.281000000     0.204000000    -4.683000000
O    -2.580000000    -0.064000000    -4.306000000
C    -2.773000000    -0.440000000    -2.918000000
C    -3.924000000     0.329000000    -2.269000000
C    -4.277000000     1.644000000    -2.743000000
H    -3.966000000     2.155000000    -3.651000000
C    -4.480000000    -0.182000000    -1.147000000
H    -4.158000000    -1.152000000    -0.780000000
O    -2.996000000    -1.766000000    -2.880000000
H    -1.806000000    -0.242000000    -2.433000000
C    -0.459000000    -0.870000000    -4.962000000
C    -0.946000000    -2.301000000    -4.988000000
H    -0.359000000    -2.933000000    -5.658000000
H    -1.976000000    -2.234000000    -5.343000000
C    -1.055000000    -3.021000000    -3.638000000
C    -2.050000000    -2.720000000    -2.744000000
C    -1.978000000    -3.217000000    -1.421000000
H    -2.832000000    -3.096000000    -0.759000000
C    -0.932000000    -4.088000000    -1.001000000
O    -0.938000000    -4.649000000     0.213000000
C    -0.122000000    -3.932000000     1.161000000
H     0.125000000    -2.958000000     0.715000000
C    -0.958000000    -3.887000000     2.392000000
C    -0.343000000    -3.937000000     3.682000000
H     0.730000000    -4.109000000     3.725000000
C    -2.329000000    -3.566000000     2.390000000
H    -2.733000000    -3.354000000     1.404000000
C    -3.018000000    -3.347000000     3.562000000
O    -4.376000000    -2.999000000     3.710000000
C    -2.384000000    -3.451000000     4.790000000
H    -2.859000000    -3.307000000     5.757000000
C    -1.028000000    -3.745000000     4.870000000
O    -0.384000000    -3.898000000     6.098000000
C     0.923000000    -3.620000000     6.431000000
C     1.504000000    -2.359000000     6.223000000
H     0.979000000    -1.430000000     6.013000000
C     1.719000000    -4.624000000     6.870000000
H     1.192000000    -5.545000000     7.104000000
C     3.063000000    -4.502000000     7.185000000
H     3.649000000    -5.303000000     7.627000000
C     3.563000000    -3.205000000     6.970000000
H     4.586000000    -2.906000000     7.187000000
C     2.843000000    -2.168000000     6.437000000
O     3.407000000    -0.933000000     6.389000000
C     3.406000000    -0.168000000     5.270000000
C     2.974000000     1.162000000     5.258000000
H     2.692000000     1.519000000     6.246000000
C     3.022000000     1.972000000     4.145000000
O     2.545000000     3.264000000     4.341000000
C     2.759000000     4.278000000     3.433000000
C     1.707000000     4.862000000     2.740000000
H     0.742000000     4.402000000     2.935000000
C     3.994000000     4.831000000     3.128000000
H     4.815000000     4.372000000     3.671000000
C     4.250000000     5.889000000     2.230000000
H     5.288000000     6.098000000     1.986000000
C     3.186000000     6.404000000     1.497000000
H     3.297000000     7.209000000     0.775000000
C     1.911000000     5.838000000     1.749000000
O     0.803000000     6.260000000     1.038000000
C     0.510000000     5.814000000    -0.235000000
C    -0.479000000     6.458000000    -0.916000000
H    -0.869000000     7.356000000    -0.444000000
C    -0.959000000     5.981000000    -2.082000000
O    -2.035000000     6.553000000    -2.702000000
C    -3.254000000     6.085000000    -3.172000000
C    -3.921000000     5.055000000    -2.533000000
H    -3.430000000     4.512000000    -1.730000000
C    -3.765000000     6.662000000    -4.329000000
H    -3.107000000     7.392000000    -4.793000000
C    -5.012000000     6.247000000    -4.841000000
H    -5.302000000     6.664000000    -5.803000000
C    -5.607000000     5.144000000    -4.282000000
H    -6.566000000     4.786000000    -4.646000000
C    -5.081000000     4.550000000    -3.125000000
O    -5.833000000     3.566000000    -2.500000000
C    -5.316000000     2.334000000    -2.117000000
C    -5.932000000     1.730000000    -1.093000000
H    -6.776000000     2.207000000    -0.601000000
C    -5.553000000     0.483000000    -0.548000000
O    -6.359000000    -0.254000000     0.288000000
C    -6.170000000    -1.498000000     0.893000000
C    -6.990000000    -2.569000000     0.527000000
H    -7.891000000    -2.453000000    -0.071000000
C    -6.766000000    -3.837000000     1.113000000
H    -7.424000000    -4.652000000     0.824000000
C    -5.920000000    -3.926000000     2.177000000
H    -5.826000000    -4.892000000     2.666000000
C    -5.191000000    -2.829000000     2.641000000
C    -5.256000000    -1.614000000     1.958000000
H    -4.644000000    -0.814000000     2.367000000
C    -0.630000000     1.130000000    -0.376000000
H    -1.243000000     1.740000000    -1.034000000
C     0.156000000     0.120000000    -0.815000000
H     0.244000000    -0.166000000    -1.860000000
C     0.890000000    -0.634000000     0.131000000
H     1.652000000    -1.353000000    -0.240000000
C     0.648000000    -0.501000000     1.474000000
H     1.237000000    -1.241000000     2.008000000
C    -0.144000000     0.485000000     1.929000000
H    -0.242000000     0.641000000     3.000000000
C    -0.836000000     1.274000000     1.031000000
C    -1.745000000     2.323000000     1.535000000
O    -1.598000000     2.600000000     2.715000000
O    -2.580000000     2.825000000     0.820000000
O    -1.500000000     6.452000000     7.580000000
H    -1.982000000     5.855000000     8.151000000
H    -1.321000000     5.939000000     6.792000000
O    -0.761000000     2.262000000     5.131000000
H    -0.845000000     2.277000000     4.178000000
H    -0.335000000     3.091000000     5.347000000
O    -5.013000000    -0.500000000     5.381000000
H    -4.271000000    -1.087000000     5.521000000
H    -4.623000000     0.300000000     5.029000000
O    -7.471000000     5.562000000    -1.192000000
H    -7.139000000     4.841000000    -1.727000000
H    -7.310000000     5.285000000    -0.290000000
O     1.153000000     8.423000000     3.404000000
H     1.554000000     7.880000000     4.083000000
H     0.484000000     7.861000000     3.013000000
O    -4.207000000     3.407000000     7.658000000
H    -3.741000000     2.741000000     7.152000000
H    -3.556000000     3.734000000     8.280000000
O    -7.299000000     5.812000000     2.739000000
H    -8.070000000     5.255000000     2.838000000
H    -6.592000000     5.321000000     3.158000000
O    -4.125000000     8.101000000     0.273000000
H    -4.803000000     7.941000000    -0.382000000
H    -3.638000000     7.278000000     0.321000000
O    -7.630000000    -1.025000000     4.480000000
H    -6.677000000    -1.068000000     4.561000000
H    -7.940000000    -1.846000000     4.862000000
O    -0.881000000     0.266000000     7.297000000
H    -0.840000000     0.852000000     6.541000000
H    -0.235000000     0.619000000     7.909000000
O    -2.894000000     5.592000000     0.948000000
H    -2.935000000     5.266000000     1.847000000
H    -2.906000000     4.803000000     0.406000000
O    -5.033000000     5.113000000     3.928000000
H    -4.092000000     5.180000000     4.094000000
H    -5.215000000     4.174000000     3.957000000
O    -3.006000000     7.937000000     3.056000000
H    -3.553000000     7.837000000     2.277000000
H    -2.696000000     7.051000000     3.245000000
O    -2.463000000     4.832000000     3.669000000
H    -2.193000000     4.041000000     3.202000000
H    -1.716000000     5.047000000     4.227000000
O    -6.684000000     3.750000000     6.678000000
H    -5.788000000     3.617000000     6.988000000
H    -6.666000000     3.467000000     5.764000000
O     0.029000000     5.194000000     5.791000000
H     0.654000000     4.845000000     6.427000000
H     0.429000000     6.007000000     5.483000000
O    -4.808000000     2.140000000     2.063000000
H    -4.119000000     2.534000000     1.528000000
H    -5.277000000     1.562000000     1.461000000
O    -6.576000000     2.771000000     4.086000000
H    -5.979000000     2.628000000     3.351000000
H    -7.111000000     1.977000000     4.117000000
O    -3.573000000     1.641000000     4.699000000
H    -2.746000000     2.042000000     4.965000000
H    -3.689000000     1.913000000     3.789000000
