215
-1447.14196
C     2.113000000     2.590000000     3.693000000
H     2.334000000     3.171000000     2.801000000
C     2.393000000     1.245000000     3.942000000
C     1.837000000     0.620000000     5.091000000
H     1.847000000    -0.460000000     5.206000000
C     3.239000000     0.512000000     2.872000000
O     4.254000000     1.350000000     2.231000000
H     2.436000000     0.345000000     2.140000000
O     3.786000000    -0.752000000     3.289000000
C     3.696000000    -1.818000000     2.422000000
C     2.583000000    -2.601000000     2.685000000
H     1.982000000    -2.305000000     3.541000000
C     2.323000000    -3.663000000     1.830000000
O     1.138000000    -4.344000000     2.127000000
C     3.127000000    -3.930000000     0.697000000
C     2.828000000    -4.931000000    -0.416000000
H     3.733000000    -4.956000000    -1.026000000
C     1.660000000    -4.531000000    -1.331000000
C     1.917000000    -4.026000000    -2.565000000
H     2.953000000    -4.021000000    -2.893000000
H     2.584000000    -5.921000000    -0.024000000
C     4.211000000    -3.080000000     0.416000000
H     4.949000000    -3.302000000    -0.351000000
C     4.498000000    -1.967000000     1.287000000
C     5.533000000    -1.010000000     0.915000000
H     6.240000000    -1.505000000     0.245000000
H     6.131000000    -0.737000000     1.787000000
C     4.948000000     0.198000000     0.194000000
C     4.897000000     0.198000000    -1.161000000
H     5.238000000    -0.710000000    -1.650000000
C     4.439000000     1.299000000     0.888000000
C     3.794000000     2.299000000     0.212000000
H     3.370000000     3.117000000     0.789000000
C     3.757000000     2.334000000    -1.177000000
O     3.079000000     3.395000000    -1.717000000
C     1.742000000     3.202000000    -2.296000000
C     0.780000000     4.365000000    -2.082000000
C    -0.395000000     4.566000000    -2.815000000
H    -0.730000000     3.892000000    -3.599000000
C     1.015000000     5.213000000    -0.962000000
H     1.868000000     5.088000000    -0.300000000
O     1.792000000     2.957000000    -3.752000000
H     1.409000000     2.398000000    -1.623000000
C     4.310000000     1.248000000    -1.896000000
C     4.202000000     1.373000000    -3.392000000
H     5.030000000     0.840000000    -3.863000000
H     4.363000000     2.411000000    -3.690000000
C     2.815000000     0.770000000    -3.912000000
C     2.678000000    -0.605000000    -4.059000000
H     3.559000000    -1.195000000    -3.818000000
C     1.709000000     1.618000000    -4.164000000
C     0.487000000     1.084000000    -4.422000000
H    -0.375000000     1.734000000    -4.559000000
C     0.373000000    -0.333000000    -4.564000000
O    -0.899000000    -0.847000000    -4.722000000
C    -1.525000000    -1.520000000    -3.579000000
C    -2.990000000    -1.137000000    -3.454000000
C    -3.368000000     0.085000000    -3.946000000
H    -2.734000000     0.800000000    -4.465000000
C    -3.931000000    -1.871000000    -2.757000000
H    -3.733000000    -2.814000000    -2.254000000
O    -1.412000000    -2.937000000    -3.803000000
H    -0.986000000    -1.123000000    -2.706000000
C     1.466000000    -1.205000000    -4.440000000
C     1.389000000    -2.733000000    -4.610000000
H     2.312000000    -3.180000000    -4.987000000
H     0.775000000    -3.011000000    -5.469000000
C     0.935000000    -3.464000000    -3.421000000
C    -0.425000000    -3.585000000    -3.051000000
C    -0.711000000    -4.162000000    -1.857000000
H    -1.708000000    -4.360000000    -1.472000000
C     0.311000000    -4.610000000    -1.000000000
O    -0.057000000    -5.102000000     0.271000000
C     0.078000000    -4.061000000     1.280000000
H     0.205000000    -3.075000000     0.808000000
C    -1.183000000    -4.016000000     2.203000000
C    -1.086000000    -3.484000000     3.537000000
H    -0.103000000    -3.133000000     3.839000000
C    -2.402000000    -4.422000000     1.696000000
H    -2.570000000    -4.757000000     0.676000000
C    -3.567000000    -4.399000000     2.499000000
O    -4.878000000    -4.691000000     1.942000000
C    -3.525000000    -3.951000000     3.844000000
H    -4.405000000    -4.112000000     4.462000000
C    -2.267000000    -3.463000000     4.377000000
O    -2.334000000    -3.061000000     5.703000000
C    -1.248000000    -2.573000000     6.399000000
C    -1.139000000    -1.248000000     6.557000000
H    -1.879000000    -0.600000000     6.096000000
C    -0.250000000    -3.506000000     6.856000000
H    -0.427000000    -4.557000000     6.641000000
C     0.871000000    -2.912000000     7.506000000
H     1.712000000    -3.442000000     7.946000000
C     1.012000000    -1.480000000     7.609000000
H     1.916000000    -1.045000000     8.029000000
C     0.029000000    -0.701000000     7.030000000
O     0.270000000     0.669000000     6.952000000
C     0.942000000     1.271000000     5.925000000
C     0.690000000     2.599000000     5.689000000
H    -0.079000000     3.130000000     6.245000000
C     1.179000000     3.184000000     4.585000000
O     0.660000000     4.389000000     4.233000000
C     1.234000000     5.410000000     3.534000000
C     0.681000000     5.748000000     2.315000000
H    -0.129000000     5.154000000     1.899000000
C     2.366000000     6.166000000     3.939000000
H     2.905000000     5.899000000     4.845000000
C     2.831000000     7.300000000     3.202000000
H     3.584000000     7.995000000     3.565000000
C     2.253000000     7.488000000     1.985000000
H     2.634000000     8.278000000     1.342000000
C     1.182000000     6.775000000     1.566000000
O     0.576000000     7.123000000     0.373000000
C     0.205000000     6.260000000    -0.662000000
C    -0.977000000     6.404000000    -1.334000000
H    -1.698000000     7.136000000    -0.978000000
C    -1.262000000     5.615000000    -2.419000000
O    -2.543000000     5.762000000    -2.879000000
C    -3.169000000     5.023000000    -3.838000000
C    -3.620000000     3.679000000    -3.625000000
H    -3.446000000     3.173000000    -2.679000000
C    -3.410000000     5.611000000    -5.133000000
H    -2.978000000     6.555000000    -5.457000000
C    -4.145000000     4.932000000    -6.109000000
H    -4.347000000     5.289000000    -7.115000000
C    -4.632000000     3.677000000    -5.806000000
H    -5.272000000     3.161000000    -6.518000000
C    -4.384000000     3.018000000    -4.619000000
O    -5.068000000     1.839000000    -4.368000000
C    -4.601000000     0.656000000    -3.760000000
C    -5.560000000    -0.052000000    -3.021000000
H    -6.559000000     0.353000000    -2.876000000
C    -5.161000000    -1.299000000    -2.485000000
O    -6.079000000    -2.007000000    -1.752000000
C    -5.860000000    -3.203000000    -1.193000000
C    -5.979000000    -4.386000000    -1.999000000
H    -6.222000000    -4.244000000    -3.049000000
C    -5.854000000    -5.612000000    -1.407000000
H    -6.123000000    -6.501000000    -1.972000000
C    -5.465000000    -5.729000000    -0.082000000
H    -5.329000000    -6.676000000     0.435000000
C    -5.246000000    -4.541000000     0.634000000
C    -5.419000000    -3.294000000     0.113000000
H    -5.288000000    -2.433000000     0.763000000
C    -1.095000000     1.221000000    -0.604000000
H    -1.501000000     1.764000000    -1.453000000
C     0.012000000     0.410000000    -0.799000000
H     0.386000000     0.233000000    -1.804000000
C     0.509000000    -0.478000000     0.132000000
H     1.343000000    -1.238000000    -0.025000000
C     0.002000000    -0.440000000     1.397000000
H     0.559000000    -1.091000000     2.066000000
C    -1.039000000     0.464000000     1.684000000
H    -1.494000000     0.528000000     2.669000000
C    -1.587000000     1.276000000     0.679000000
C    -2.811000000     2.098000000     0.983000000
O    -3.230000000     2.227000000     2.132000000
O    -3.372000000     2.765000000     0.110000000
O    -0.207000000     7.568000000     4.852000000
H     0.105000000     6.964000000     5.526000000
H    -0.735000000     7.024000000     4.268000000
O    -4.682000000     6.962000000    -1.634000000
H    -4.236000000     6.368000000    -2.236000000
H    -5.006000000     7.670000000    -2.192000000
O    -8.313000000     5.994000000     2.555000000
H    -7.456000000     6.202000000     2.184000000
H    -8.930000000     6.507000000     2.033000000
O    -7.076000000     3.536000000     3.938000000
H    -7.429000000     4.342000000     3.562000000
H    -6.623000000     3.110000000     3.211000000
O    -5.386000000     3.788000000     6.607000000
H    -6.077000000     3.602000000     5.972000000
H    -5.674000000     4.588000000     7.047000000
O    -7.923000000     4.616000000    -0.114000000
H    -7.107000000     4.124000000    -0.021000000
H    -7.847000000     5.328000000     0.522000000
O    -3.881000000     1.014000000     4.628000000
H    -3.439000000     0.809000000     3.804000000
H    -4.027000000     1.959000000     4.593000000
O    -1.805000000     7.730000000     1.732000000
H    -1.087000000     7.861000000     1.112000000
H    -2.234000000     6.928000000     1.435000000
O    -6.186000000     0.350000000     0.054000000
H    -6.306000000    -0.430000000    -0.488000000
H    -5.791000000     0.992000000    -0.536000000
O    -2.692000000     4.520000000     6.454000000
H    -3.539000000     4.158000000     6.712000000
H    -2.630000000     4.341000000     5.516000000
O    -5.937000000     6.187000000     1.127000000
H    -5.352000000     5.456000000     0.930000000
H    -5.976000000     6.689000000     0.313000000
O    -4.316000000     7.699000000     3.859000000
H    -4.290000000     8.422000000     3.233000000
H    -4.525000000     6.930000000     3.329000000
O    -2.418000000     4.188000000     3.770000000
H    -2.850000000     3.536000000     3.219000000
H    -1.483000000     4.013000000     3.659000000
O    -4.943000000     0.266000000     6.973000000
H    -4.480000000     0.486000000     7.782000000
H    -4.350000000     0.543000000     6.275000000
O    -5.470000000     2.641000000    -1.464000000
H    -4.742000000     2.800000000    -0.864000000
H    -5.124000000     2.868000000    -2.327000000
O    -6.764000000     0.262000000     4.320000000
H    -6.254000000     0.167000000     5.124000000
H    -6.538000000     1.133000000     3.994000000
O    -7.610000000    -0.946000000     1.863000000
H    -7.069000000    -0.335000000     1.363000000
H    -7.339000000    -0.815000000     2.772000000
O    -3.180000000     5.414000000     0.587000000
H    -3.343000000     5.615000000    -0.335000000
H    -3.103000000     4.460000000     0.613000000
O    -5.689000000     2.059000000     2.292000000
H    -4.738000000     2.161000000     2.268000000
H    -5.892000000     1.531000000     1.519000000
