215
-1457.98701
C     4.188000000     2.666000000     1.977000000
H     4.435000000     3.108000000     1.015000000
C     4.055000000     1.257000000     2.119000000
C     3.597000000     0.728000000     3.325000000
H     3.469000000    -0.348000000     3.409000000
C     4.265000000     0.359000000     0.892000000
O     5.078000000     0.945000000    -0.063000000
H     3.264000000     0.195000000     0.467000000
O     4.730000000    -0.915000000     1.330000000
C     4.201000000    -2.056000000     0.753000000
C     3.441000000    -2.920000000     1.540000000
H     3.328000000    -2.761000000     2.609000000
C     2.561000000    -3.870000000     0.922000000
O     1.596000000    -4.521000000     1.701000000
C     2.653000000    -4.070000000    -0.465000000
C     1.893000000    -5.216000000    -1.153000000
H     2.408000000    -5.536000000    -2.061000000
C     0.586000000    -4.718000000    -1.606000000
C     0.390000000    -4.123000000    -2.800000000
H     1.232000000    -3.999000000    -3.476000000
H     1.725000000    -6.098000000    -0.531000000
C     3.616000000    -3.332000000    -1.214000000
H     3.787000000    -3.528000000    -2.269000000
C     4.246000000    -2.260000000    -0.727000000
C     5.216000000    -1.484000000    -1.597000000
H     5.390000000    -2.055000000    -2.512000000
H     6.121000000    -1.238000000    -1.039000000
C     4.481000000    -0.230000000    -2.099000000
C     3.785000000    -0.210000000    -3.316000000
H     3.736000000    -1.137000000    -3.882000000
C     4.539000000     1.009000000    -1.340000000
C     3.827000000     2.142000000    -1.744000000
H     3.845000000     3.091000000    -1.215000000
C     3.052000000     2.057000000    -2.912000000
O     2.168000000     3.100000000    -3.160000000
C     0.790000000     2.830000000    -2.866000000
C     0.062000000     3.913000000    -2.113000000
C    -1.318000000     4.044000000    -2.039000000
H    -1.978000000     3.419000000    -2.635000000
C     0.791000000     4.923000000    -1.414000000
H     1.870000000     4.929000000    -1.549000000
O     0.106000000     2.537000000    -4.167000000
H     0.777000000     1.949000000    -2.208000000
C     3.124000000     0.942000000    -3.782000000
C     2.226000000     0.890000000    -5.036000000
H     2.644000000     0.234000000    -5.804000000
H     2.198000000     1.862000000    -5.533000000
C     0.785000000     0.338000000    -4.758000000
C     0.498000000    -1.050000000    -4.838000000
H     1.191000000    -1.830000000    -5.143000000
C    -0.250000000     1.189000000    -4.470000000
C    -1.537000000     0.807000000    -4.188000000
H    -2.371000000     1.428000000    -3.870000000
C    -1.757000000    -0.567000000    -4.151000000
O    -3.024000000    -0.915000000    -3.724000000
C    -3.209000000    -1.439000000    -2.386000000
C    -4.516000000    -0.983000000    -1.864000000
C    -5.026000000     0.316000000    -2.121000000
H    -4.495000000     1.008000000    -2.770000000
C    -5.201000000    -1.727000000    -0.911000000
H    -4.748000000    -2.663000000    -0.595000000
O    -3.165000000    -2.909000000    -2.336000000
H    -2.445000000    -1.048000000    -1.698000000
C    -0.812000000    -1.456000000    -4.619000000
C    -1.051000000    -2.975000000    -4.613000000
H    -0.408000000    -3.421000000    -5.374000000
H    -1.995000000    -3.188000000    -5.119000000
C    -0.866000000    -3.632000000    -3.214000000
C    -1.949000000    -3.551000000    -2.259000000
C    -1.743000000    -4.165000000    -1.031000000
H    -2.551000000    -4.197000000    -0.305000000
C    -0.481000000    -4.699000000    -0.698000000
O    -0.395000000    -5.037000000     0.574000000
C     0.232000000    -4.024000000     1.450000000
H     0.325000000    -3.073000000     0.905000000
C    -0.489000000    -3.923000000     2.781000000
C     0.287000000    -3.791000000     3.982000000
H     1.357000000    -3.981000000     3.956000000
C    -1.848000000    -3.664000000     2.838000000
H    -2.516000000    -3.696000000     1.981000000
C    -2.394000000    -3.165000000     4.008000000
O    -3.579000000    -2.468000000     3.865000000
C    -1.674000000    -3.017000000     5.214000000
H    -2.170000000    -2.532000000     6.052000000
C    -0.317000000    -3.321000000     5.167000000
O     0.529000000    -3.164000000     6.258000000
C     1.636000000    -2.313000000     6.334000000
C     1.650000000    -1.064000000     5.726000000
H     0.747000000    -0.790000000     5.186000000
C     2.789000000    -2.861000000     6.972000000
H     2.750000000    -3.911000000     7.251000000
C     4.028000000    -2.127000000     6.869000000
H     4.973000000    -2.602000000     7.120000000
C     3.936000000    -0.702000000     6.512000000
H     4.790000000    -0.055000000     6.692000000
C     2.731000000    -0.206000000     5.938000000
O     2.712000000     1.145000000     5.581000000
C     3.302000000     1.586000000     4.410000000
C     3.583000000     2.970000000     4.329000000
H     3.283000000     3.530000000     5.211000000
C     3.978000000     3.496000000     3.124000000
O     4.359000000     4.790000000     2.975000000
C     3.916000000     5.608000000     1.964000000
C     2.593000000     5.613000000     1.607000000
H     1.826000000     5.143000000     2.218000000
C     4.861000000     6.420000000     1.387000000
H     5.887000000     6.430000000     1.747000000
C     4.491000000     7.141000000     0.235000000
H     5.238000000     7.729000000    -0.293000000
C     3.178000000     7.146000000    -0.206000000
H     2.995000000     7.715000000    -1.113000000
C     2.206000000     6.454000000     0.566000000
O     0.914000000     6.682000000     0.251000000
C     0.166000000     5.873000000    -0.551000000
C    -1.173000000     5.967000000    -0.564000000
H    -1.718000000     6.696000000     0.030000000
C    -1.915000000     5.064000000    -1.311000000
O    -3.287000000     5.237000000    -1.166000000
C    -4.167000000     4.596000000    -1.952000000
C    -5.061000000     3.628000000    -1.472000000
H    -4.944000000     3.285000000    -0.448000000
C    -4.184000000     4.899000000    -3.307000000
H    -3.493000000     5.646000000    -3.687000000
C    -5.128000000     4.301000000    -4.150000000
H    -5.040000000     4.459000000    -5.222000000
C    -6.009000000     3.359000000    -3.711000000
H    -6.665000000     2.869000000    -4.426000000
C    -5.973000000     3.022000000    -2.371000000
O    -6.738000000     1.977000000    -1.862000000
C    -6.205000000     0.737000000    -1.520000000
C    -6.936000000    -0.025000000    -0.625000000
H    -7.884000000     0.298000000    -0.202000000
C    -6.406000000    -1.261000000    -0.343000000
O    -7.051000000    -2.120000000     0.542000000
C    -6.366000000    -2.811000000     1.606000000
C    -6.789000000    -4.062000000     1.911000000
H    -7.636000000    -4.528000000     1.413000000
C    -6.135000000    -4.786000000     2.846000000
H    -6.482000000    -5.797000000     3.043000000
C    -5.057000000    -4.294000000     3.529000000
H    -4.674000000    -4.945000000     4.312000000
C    -4.671000000    -3.015000000     3.226000000
C    -5.299000000    -2.253000000     2.281000000
H    -4.890000000    -1.317000000     1.909000000
C    -1.764000000     0.428000000     0.547000000
H    -2.542000000     0.920000000    -0.032000000
C    -0.690000000    -0.115000000    -0.124000000
H    -0.533000000    -0.066000000    -1.199000000
C     0.231000000    -0.880000000     0.569000000
H     1.201000000    -1.193000000     0.072000000
C     0.267000000    -0.793000000     1.940000000
H     1.140000000    -1.177000000     2.462000000
C    -0.775000000    -0.194000000     2.620000000
H    -0.915000000    -0.300000000     3.692000000
C    -1.814000000     0.382000000     1.953000000
C    -2.910000000     1.096000000     2.807000000
O    -2.943000000     1.025000000     4.041000000
O    -3.848000000     1.529000000     2.172000000
O    -0.802000000     4.369000000     2.403000000
H    -0.424000000     4.349000000     3.282000000
H    -0.189000000     4.894000000     1.889000000
O    -8.938000000    -0.076000000     2.885000000
H    -8.332000000     0.595000000     2.569000000
H    -9.155000000     0.199000000     3.776000000
O    -5.164000000     6.123000000     5.110000000
H    -5.366000000     5.446000000     4.464000000
H    -4.933000000     5.638000000     5.902000000
O    -0.940000000     2.436000000     4.943000000
H    -1.697000000     1.878000000     4.763000000
H    -0.847000000     2.412000000     5.896000000
O    -2.499000000    -0.048000000     7.065000000
H    -3.115000000    -0.049000000     6.332000000
H    -2.014000000     0.772000000     6.969000000
O    -5.148000000    -2.985000000     7.177000000
H    -5.313000000    -2.402000000     7.918000000
H    -4.247000000    -2.794000000     6.918000000
O    -2.032000000     5.303000000     5.851000000
H    -1.415000000     5.729000000     5.256000000
H    -1.491000000     4.712000000     6.375000000
O    -5.174000000    -0.087000000     4.468000000
H    -4.299000000     0.298000000     4.432000000
H    -5.025000000    -1.029000000     4.380000000
O     0.984000000     4.337000000     5.303000000
H     0.443000000     3.550000000     5.239000000
H     1.394000000     4.276000000     6.166000000
O    -7.475000000     1.631000000     4.701000000
H    -6.949000000     0.998000000     5.189000000
H    -7.045000000     1.693000000     3.848000000
O    -6.258000000     4.070000000     2.262000000
H    -5.302000000     4.022000000     2.262000000
H    -6.544000000     3.161000000     2.177000000
O    -1.087000000     2.369000000     7.600000000
H    -0.642000000     1.796000000     8.224000000
H    -1.321000000     3.144000000     8.110000000
O    -3.479000000     4.066000000     1.819000000
H    -3.651000000     3.128000000     1.902000000
H    -2.530000000     4.145000000     1.918000000
O    -5.451000000     2.713000000     7.422000000
H    -6.402000000     2.811000000     7.471000000
H    -5.243000000     2.844000000     6.497000000
O    -3.450000000     4.579000000     8.193000000
H    -4.008000000     3.904000000     7.808000000
H    -3.298000000     5.200000000     7.481000000
O    -6.445000000     1.388000000     2.217000000
H    -5.507000000     1.437000000     2.401000000
H    -6.533000000     0.645000000     1.619000000
O    -4.006000000     7.022000000     1.810000000
H    -3.714000000     6.119000000     1.688000000
H    -3.196000000     7.526000000     1.891000000
O    -4.402000000     3.391000000     4.892000000
H    -4.213000000     2.492000000     4.626000000
H    -3.561000000     3.844000000     4.822000000
O    -7.292000000    -1.681000000     5.583000000
H    -6.782000000    -1.024000000     5.108000000
H    -6.765000000    -1.879000000     6.358000000
