215
-1448.88775
C     3.670000000     2.599000000     2.279000000
H     3.855000000     3.007000000     1.288000000
C     3.726000000     1.215000000     2.411000000
C     3.645000000     0.705000000     3.703000000
H     3.752000000    -0.370000000     3.823000000
C     3.916000000     0.280000000     1.195000000
O     4.725000000     0.982000000     0.246000000
H     2.902000000     0.082000000     0.819000000
O     4.608000000    -0.973000000     1.450000000
C     4.117000000    -2.108000000     1.005000000
C     3.217000000    -2.738000000     1.819000000
H     3.094000000    -2.229000000     2.771000000
C     2.581000000    -3.886000000     1.415000000
O     1.506000000    -4.225000000     2.140000000
C     2.668000000    -4.305000000     0.017000000
C     1.684000000    -5.319000000    -0.615000000
H     2.226000000    -5.798000000    -1.433000000
C     0.390000000    -4.677000000    -1.081000000
C     0.290000000    -4.262000000    -2.425000000
H     1.191000000    -4.337000000    -3.028000000
H     1.452000000    -6.088000000     0.125000000
C     3.585000000    -3.628000000    -0.784000000
H     3.846000000    -3.948000000    -1.790000000
C     4.321000000    -2.506000000    -0.338000000
C     5.230000000    -1.668000000    -1.156000000
H     5.685000000    -2.249000000    -1.962000000
H     5.988000000    -1.205000000    -0.521000000
C     4.408000000    -0.534000000    -1.664000000
C     3.880000000    -0.789000000    -2.960000000
H     4.153000000    -1.694000000    -3.496000000
C     4.255000000     0.719000000    -1.030000000
C     3.520000000     1.727000000    -1.687000000
H     3.478000000     2.740000000    -1.294000000
C     3.082000000     1.524000000    -2.963000000
O     2.449000000     2.610000000    -3.440000000
C     1.036000000     2.634000000    -3.323000000
C     0.335000000     3.973000000    -2.821000000
C    -0.948000000     4.369000000    -3.295000000
H    -1.422000000     3.700000000    -4.009000000
C     0.932000000     4.831000000    -1.929000000
H     1.837000000     4.451000000    -1.462000000
O     0.542000000     2.191000000    -4.641000000
H     0.736000000     1.916000000    -2.546000000
C     3.190000000     0.234000000    -3.592000000
C     2.570000000     0.137000000    -4.964000000
H     3.170000000    -0.547000000    -5.568000000
H     2.612000000     1.064000000    -5.540000000
C     1.129000000    -0.156000000    -4.876000000
C     0.804000000    -1.506000000    -4.817000000
H     1.594000000    -2.248000000    -4.743000000
C     0.180000000     0.865000000    -4.720000000
C    -1.168000000     0.549000000    -4.567000000
H    -1.931000000     1.272000000    -4.289000000
C    -1.570000000    -0.815000000    -4.492000000
O    -2.822000000    -1.292000000    -4.141000000
C    -3.065000000    -1.630000000    -2.697000000
C    -4.261000000    -1.009000000    -2.065000000
C    -4.492000000     0.335000000    -2.289000000
H    -3.871000000     0.957000000    -2.928000000
C    -5.115000000    -1.704000000    -1.197000000
H    -4.928000000    -2.737000000    -0.915000000
O    -3.156000000    -3.037000000    -2.464000000
H    -2.270000000    -1.242000000    -2.043000000
C    -0.569000000    -1.830000000    -4.565000000
C    -0.997000000    -3.269000000    -4.358000000
H    -0.463000000    -3.933000000    -5.040000000
H    -2.005000000    -3.447000000    -4.738000000
C    -0.914000000    -3.765000000    -2.933000000
C    -2.049000000    -3.739000000    -2.067000000
C    -1.925000000    -4.040000000    -0.739000000
H    -2.751000000    -3.912000000    -0.044000000
C    -0.738000000    -4.596000000    -0.268000000
O    -0.675000000    -4.788000000     1.086000000
C     0.144000000    -3.775000000     1.796000000
H     0.238000000    -2.894000000     1.145000000
C    -0.563000000    -3.204000000     3.048000000
C     0.138000000    -3.106000000     4.273000000
H     1.213000000    -3.260000000     4.242000000
C    -1.877000000    -2.780000000     2.928000000
H    -2.411000000    -2.917000000     1.991000000
C    -2.564000000    -2.327000000     4.169000000
O    -3.951000000    -2.263000000     4.275000000
C    -1.853000000    -2.250000000     5.340000000
H    -2.342000000    -1.988000000     6.274000000
C    -0.503000000    -2.580000000     5.415000000
O     0.270000000    -2.474000000     6.615000000
C     1.551000000    -2.036000000     6.790000000
C     1.923000000    -0.819000000     6.214000000
H     1.101000000    -0.225000000     5.825000000
C     2.437000000    -2.843000000     7.452000000
H     2.137000000    -3.720000000     8.019000000
C     3.746000000    -2.390000000     7.581000000
H     4.416000000    -2.937000000     8.239000000
C     4.127000000    -1.134000000     7.101000000
H     5.059000000    -0.637000000     7.358000000
C     3.215000000    -0.348000000     6.411000000
O     3.627000000     0.972000000     6.102000000
C     3.481000000     1.531000000     4.851000000
C     3.421000000     2.915000000     4.643000000
H     3.452000000     3.657000000     5.437000000
C     3.490000000     3.459000000     3.397000000
O     3.533000000     4.811000000     3.185000000
C     3.473000000     5.428000000     1.976000000
C     2.239000000     5.838000000     1.445000000
H     1.356000000     5.596000000     2.031000000
C     4.575000000     5.707000000     1.183000000
H     5.583000000     5.525000000     1.549000000
C     4.471000000     6.218000000    -0.141000000
H     5.309000000     6.376000000    -0.815000000
C     3.237000000     6.471000000    -0.667000000
H     3.163000000     6.768000000    -1.710000000
C     2.060000000     6.320000000     0.129000000
O     0.788000000     6.642000000    -0.384000000
C     0.271000000     5.990000000    -1.456000000
C    -1.074000000     6.268000000    -1.822000000
H    -1.664000000     7.069000000    -1.383000000
C    -1.659000000     5.525000000    -2.817000000
O    -2.873000000     5.913000000    -3.354000000
C    -3.947000000     5.123000000    -3.440000000
C    -4.249000000     4.202000000    -2.420000000
H    -3.562000000     4.011000000    -1.601000000
C    -4.769000000     5.200000000    -4.483000000
H    -4.693000000     6.007000000    -5.207000000
C    -5.762000000     4.260000000    -4.678000000
H    -6.492000000     4.400000000    -5.471000000
C    -5.847000000     3.181000000    -3.839000000
H    -6.665000000     2.484000000    -3.999000000
C    -5.150000000     3.181000000    -2.642000000
O    -5.537000000     2.412000000    -1.625000000
C    -5.450000000     1.051000000    -1.601000000
C    -6.247000000     0.340000000    -0.711000000
H    -7.060000000     0.892000000    -0.247000000
C    -6.123000000    -1.039000000    -0.557000000
O    -6.901000000    -1.694000000     0.370000000
C    -6.334000000    -2.418000000     1.382000000
C    -7.051000000    -3.526000000     1.816000000
H    -7.952000000    -3.814000000     1.281000000
C    -6.646000000    -4.283000000     2.899000000
H    -7.286000000    -5.086000000     3.257000000
C    -5.600000000    -3.846000000     3.638000000
H    -5.294000000    -4.376000000     4.536000000
C    -4.891000000    -2.703000000     3.309000000
C    -5.220000000    -1.980000000     2.093000000
H    -4.842000000    -0.989000000     1.852000000
C    -1.825000000     1.088000000     0.209000000
H    -2.753000000     1.597000000    -0.038000000
C    -0.958000000     0.558000000    -0.736000000
H    -1.058000000     0.699000000    -1.809000000
C     0.120000000    -0.156000000    -0.354000000
H     0.661000000    -0.724000000    -1.063000000
C     0.374000000    -0.312000000     1.013000000
H     1.263000000    -0.893000000     1.243000000
C    -0.440000000     0.259000000     2.006000000
H    -0.132000000     0.159000000     3.044000000
C    -1.632000000     0.932000000     1.650000000
C    -2.696000000     1.400000000     2.573000000
O    -2.367000000     1.944000000     3.612000000
O    -3.851000000     1.214000000     2.233000000
O    -0.370000000     3.914000000     3.250000000
H    -1.076000000     3.321000000     3.507000000
H     0.131000000     4.053000000     4.053000000
O    -8.290000000     2.313000000     1.875000000
H    -8.893000000     2.862000000     2.377000000
H    -7.645000000     2.016000000     2.517000000
O    -1.675000000     2.609000000     5.951000000
H    -1.732000000     2.286000000     5.052000000
H    -2.472000000     2.287000000     6.373000000
O    -4.421000000     2.271000000     7.643000000
H    -5.153000000     2.858000000     7.449000000
H    -4.563000000     1.516000000     7.073000000
O    -3.943000000     4.055000000     3.870000000
H    -3.720000000     4.205000000     2.952000000
H    -3.526000000     3.221000000     4.085000000
O    -2.251000000     5.031000000     1.078000000
H    -1.649000000     5.395000000     0.429000000
H    -1.683000000     4.721000000     1.783000000
O    -4.187000000     0.535000000     5.219000000
H    -3.607000000     0.733000000     4.483000000
H    -4.151000000    -0.418000000     5.302000000
O    -3.688000000     5.843000000     6.031000000
H    -4.237000000     6.533000000     5.660000000
H    -3.758000000     5.120000000     5.406000000
O     0.534000000     4.135000000     6.127000000
H    -0.305000000     3.687000000     6.227000000
H     1.053000000     3.842000000     6.876000000
O    -6.310000000     0.923000000     3.356000000
H    -6.035000000     1.026000000     4.268000000
H    -5.510000000     1.057000000     2.848000000
O    -1.957000000     3.006000000     8.883000000
H    -2.762000000     2.748000000     8.433000000
H    -2.040000000     3.952000000     8.998000000
O    -5.149000000     3.165000000     1.235000000
H    -4.660000000     2.405000000     1.552000000
H    -5.050000000     3.134000000     0.284000000
O    -0.208000000     6.955000000     4.719000000
H    -0.932000000     7.224000000     4.154000000
H    -0.416000000     6.053000000     4.962000000
O    -6.581000000     3.927000000     6.431000000
H    -6.879000000     3.059000000     6.159000000
H    -6.357000000     4.371000000     5.612000000
O    -7.762000000     4.872000000     0.176000000
H    -7.460000000     3.972000000     0.291000000
H    -8.102000000     4.898000000    -0.719000000
O    -5.436000000     6.819000000     0.529000000
H    -6.383000000     6.808000000     0.664000000
H    -5.189000000     5.895000000     0.489000000
O    -8.851000000    -0.874000000     2.633000000
H    -9.028000000     0.056000000     2.776000000
H    -7.905000000    -0.959000000     2.751000000
O    -6.481000000     4.366000000     3.704000000
H    -6.704000000     4.081000000     2.817000000
H    -5.529000000     4.280000000     3.750000000
O    -7.339000000     1.162000000     6.144000000
H    -8.276000000     0.967000000     6.161000000
H    -6.919000000     0.341000000     6.400000000
