215
-1464.66793
C     4.423000000     2.582000000     2.702000000
H     4.518000000     3.108000000     1.755000000
C     4.507000000     1.179000000     2.730000000
C     4.361000000     0.538000000     3.972000000
H     4.341000000    -0.549000000     3.944000000
C     4.432000000     0.371000000     1.485000000
O     5.155000000     1.007000000     0.395000000
H     3.370000000     0.323000000     1.201000000
O     4.910000000    -1.016000000     1.593000000
C     4.213000000    -2.021000000     0.893000000
C     3.257000000    -2.819000000     1.597000000
H     3.000000000    -2.540000000     2.615000000
C     2.541000000    -3.832000000     0.900000000
O     1.532000000    -4.320000000     1.645000000
C     2.757000000    -4.097000000    -0.476000000
C     1.869000000    -5.103000000    -1.237000000
H     2.371000000    -5.369000000    -2.170000000
C     0.457000000    -4.606000000    -1.641000000
C     0.243000000    -4.137000000    -2.944000000
H     1.161000000    -4.103000000    -3.525000000
H     1.841000000    -6.039000000    -0.676000000
C     3.717000000    -3.346000000    -1.176000000
H     3.904000000    -3.582000000    -2.221000000
C     4.448000000    -2.325000000    -0.488000000
C     5.476000000    -1.497000000    -1.202000000
H     5.793000000    -2.063000000    -2.080000000
H     6.388000000    -1.323000000    -0.627000000
C     4.754000000    -0.221000000    -1.686000000
C     4.119000000    -0.274000000    -2.914000000
H     4.151000000    -1.175000000    -3.520000000
C     4.575000000     0.936000000    -0.887000000
C     3.854000000     2.034000000    -1.322000000
H     3.707000000     2.913000000    -0.699000000
C     3.217000000     1.934000000    -2.569000000
O     2.398000000     2.979000000    -2.933000000
C     0.983000000     2.767000000    -2.905000000
C     0.201000000     3.832000000    -2.130000000
C    -1.007000000     4.440000000    -2.593000000
H    -1.269000000     4.112000000    -3.596000000
C     0.565000000     4.039000000    -0.810000000
H     1.487000000     3.553000000    -0.503000000
O     0.556000000     2.544000000    -4.264000000
H     0.896000000     1.816000000    -2.360000000
C     3.368000000     0.774000000    -3.383000000
C     2.687000000     0.649000000    -4.758000000
H     3.224000000    -0.081000000    -5.367000000
H     2.873000000     1.586000000    -5.286000000
C     1.216000000     0.252000000    -4.769000000
C     0.786000000    -1.102000000    -4.828000000
H     1.656000000    -1.751000000    -4.778000000
C     0.230000000     1.214000000    -4.523000000
C    -1.135000000     0.865000000    -4.403000000
H    -1.728000000     1.737000000    -4.138000000
C    -1.535000000    -0.486000000    -4.481000000
O    -2.779000000    -0.737000000    -4.038000000
C    -2.983000000    -1.304000000    -2.716000000
C    -4.161000000    -0.680000000    -2.121000000
C    -4.601000000     0.598000000    -2.487000000
H    -3.976000000     1.169000000    -3.169000000
C    -4.853000000    -1.366000000    -1.070000000
H    -4.627000000    -2.383000000    -0.761000000
O    -3.109000000    -2.750000000    -2.832000000
H    -2.191000000    -1.006000000    -2.012000000
C    -0.539000000    -1.482000000    -4.612000000
C    -0.973000000    -2.944000000    -4.666000000
H    -0.277000000    -3.473000000    -5.321000000
H    -1.901000000    -3.033000000    -5.235000000
C    -0.963000000    -3.513000000    -3.324000000
C    -2.033000000    -3.492000000    -2.424000000
C    -1.854000000    -3.965000000    -1.147000000
H    -2.727000000    -4.050000000    -0.504000000
C    -0.640000000    -4.482000000    -0.769000000
O    -0.514000000    -4.849000000     0.527000000
C     0.189000000    -3.865000000     1.353000000
H     0.388000000    -3.020000000     0.677000000
C    -0.661000000    -3.419000000     2.551000000
C    -0.011000000    -2.915000000     3.624000000
H     1.066000000    -2.773000000     3.648000000
C    -2.051000000    -3.752000000     2.648000000
H    -2.595000000    -4.273000000     1.864000000
C    -2.778000000    -3.335000000     3.739000000
O    -4.088000000    -3.767000000     3.802000000
C    -2.160000000    -2.686000000     4.781000000
H    -2.740000000    -2.296000000     5.613000000
C    -0.771000000    -2.493000000     4.729000000
O    -0.304000000    -1.628000000     5.682000000
C     0.994000000    -1.751000000     6.167000000
C     1.791000000    -0.624000000     5.922000000
H     1.463000000     0.178000000     5.267000000
C     1.524000000    -2.865000000     6.822000000
H     0.870000000    -3.726000000     6.927000000
C     2.795000000    -2.857000000     7.307000000
H     3.268000000    -3.715000000     7.778000000
C     3.584000000    -1.719000000     7.099000000
H     4.645000000    -1.813000000     7.316000000
C     3.090000000    -0.600000000     6.347000000
O     3.886000000     0.572000000     6.342000000
C     4.207000000     1.231000000     5.197000000
C     4.195000000     2.633000000     5.096000000
H     4.048000000     3.189000000     6.018000000
C     4.398000000     3.275000000     3.899000000
O     4.218000000     4.619000000     3.839000000
C     3.519000000     5.265000000     2.725000000
C     2.229000000     4.946000000     2.417000000
H     1.785000000     4.127000000     2.978000000
C     4.209000000     6.199000000     1.946000000
H     5.263000000     6.372000000     2.150000000
C     3.618000000     6.832000000     0.866000000
H     4.119000000     7.495000000     0.166000000
C     2.191000000     6.585000000     0.634000000
H     1.799000000     7.020000000    -0.281000000
C     1.545000000     5.641000000     1.410000000
O     0.273000000     5.294000000     1.217000000
C    -0.135000000     4.958000000    -0.053000000
C    -1.223000000     5.593000000    -0.545000000
H    -1.742000000     6.299000000     0.099000000
C    -1.712000000     5.352000000    -1.865000000
O    -2.879000000     5.864000000    -2.370000000
C    -3.818000000     5.131000000    -3.032000000
C    -4.394000000     4.085000000    -2.324000000
H    -3.962000000     3.710000000    -1.400000000
C    -4.347000000     5.585000000    -4.188000000
H    -3.959000000     6.508000000    -4.611000000
C    -5.361000000     4.829000000    -4.774000000
H    -5.692000000     5.147000000    -5.759000000
C    -5.843000000     3.763000000    -4.126000000
H    -6.669000000     3.271000000    -4.635000000
C    -5.506000000     3.427000000    -2.826000000
O    -6.186000000     2.420000000    -2.213000000
C    -5.743000000     1.160000000    -1.866000000
C    -6.368000000     0.465000000    -0.826000000
H    -7.165000000     0.900000000    -0.228000000
C    -5.969000000    -0.766000000    -0.478000000
O    -6.724000000    -1.326000000     0.528000000
C    -6.350000000    -2.449000000     1.182000000
C    -7.018000000    -3.670000000     0.775000000
H    -7.729000000    -3.585000000    -0.043000000
C    -6.709000000    -4.821000000     1.506000000
H    -7.222000000    -5.723000000     1.180000000
C    -5.764000000    -4.859000000     2.500000000
H    -5.541000000    -5.783000000     3.028000000
C    -5.065000000    -3.691000000     2.749000000
C    -5.411000000    -2.450000000     2.166000000
H    -4.884000000    -1.507000000     2.285000000
C    -1.393000000     0.401000000     0.263000000
H    -2.209000000     0.821000000    -0.318000000
C    -0.117000000     0.090000000    -0.299000000
H     0.078000000     0.212000000    -1.362000000
C     0.905000000    -0.381000000     0.506000000
H     1.915000000    -0.638000000     0.099000000
C     0.756000000    -0.370000000     1.896000000
H     1.514000000    -0.804000000     2.543000000
C    -0.407000000     0.011000000     2.517000000
H    -0.477000000    -0.072000000     3.598000000
C    -1.516000000     0.370000000     1.672000000
C    -2.829000000     0.778000000     2.312000000
O    -2.843000000     0.996000000     3.536000000
O    -3.872000000     0.954000000     1.697000000
O    -2.963000000     5.046000000     4.862000000
H    -3.232000000     5.688000000     5.520000000
H    -2.337000000     5.516000000     4.312000000
O    -7.278000000     4.622000000     4.806000000
H    -7.741000000     4.411000000     5.617000000
H    -6.448000000     4.149000000     4.875000000
O    -0.789000000     2.127000000     4.745000000
H    -1.548000000     1.571000000     4.569000000
H    -1.085000000     3.011000000     4.530000000
O    -3.839000000    -0.278000000     7.673000000
H    -2.892000000    -0.139000000     7.674000000
H    -4.092000000    -0.197000000     6.753000000
O    -4.710000000     3.157000000     3.925000000
H    -4.258000000     2.477000000     3.426000000
H    -4.081000000     3.877000000     3.972000000
O    -5.159000000     6.535000000     2.599000000
H    -4.719000000     6.001000000     3.260000000
H    -4.839000000     6.194000000     1.764000000
O    -8.518000000    -2.419000000     3.814000000
H    -8.532000000    -1.531000000     4.172000000
H    -7.875000000    -2.884000000     4.350000000
O    -6.873000000    -3.458000000     5.891000000
H    -5.948000000    -3.225000000     5.964000000
H    -6.882000000    -4.415000000     5.911000000
O    -6.403000000     0.463000000     8.425000000
H    -5.618000000     0.130000000     7.990000000
H    -6.115000000     1.266000000     8.858000000
O     0.782000000     3.298000000     7.014000000
H     0.547000000     2.612000000     6.389000000
H     1.414000000     2.881000000     7.600000000
O    -8.213000000     2.443000000     3.477000000
H    -7.508000000     1.816000000     3.644000000
H    -7.835000000     3.293000000     3.702000000
O    -5.524000000     3.036000000     1.287000000
H    -4.916000000     2.331000000     1.061000000
H    -5.186000000     3.390000000     2.109000000
O    -2.077000000     6.555000000     2.505000000
H    -2.099000000     7.258000000     1.856000000
H    -1.455000000     5.920000000     2.148000000
O    -7.968000000     3.541000000     0.332000000
H    -7.080000000     3.250000000     0.542000000
H    -8.536000000     2.969000000     0.849000000
O    -3.853000000     2.814000000     7.190000000
H    -3.730000000     3.589000000     6.642000000
H    -4.067000000     2.115000000     6.572000000
O    -6.283000000     0.424000000     2.976000000
H    -6.901000000     0.087000000     2.327000000
H    -5.453000000     0.491000000     2.503000000
O    -1.006000000     0.610000000     7.600000000
H    -0.836000000     0.670000000     6.660000000
H    -0.279000000     0.091000000     7.943000000
O    -4.567000000    -2.990000000     7.736000000
H    -4.287000000    -2.118000000     8.015000000
H    -3.892000000    -3.578000000     8.074000000
O    -4.475000000     0.073000000     5.137000000
H    -5.245000000     0.174000000     4.578000000
H    -3.748000000     0.393000000     4.604000000
