215
-1424.80970
C     3.465000000    -0.140000000    -3.540000000
H     2.685000000    -0.857000000    -3.781000000
C     4.075000000    -0.223000000    -2.297000000
C     4.987000000     0.755000000    -1.883000000
H     5.484000000     0.632000000    -0.924000000
C     3.683000000    -1.363000000    -1.358000000
O     3.660000000    -2.609000000    -2.048000000
H     2.633000000    -1.269000000    -1.043000000
O     4.546000000    -1.584000000    -0.299000000
C     4.168000000    -1.781000000     1.001000000
C     4.134000000    -0.719000000     1.904000000
H     4.576000000     0.233000000     1.621000000
C     3.391000000    -0.880000000     3.066000000
O     3.157000000     0.131000000     3.981000000
C     2.879000000    -2.113000000     3.375000000
C     1.962000000    -2.287000000     4.566000000
H     1.843000000    -3.361000000     4.721000000
C     0.563000000    -1.757000000     4.353000000
C    -0.403000000    -2.712000000     4.047000000
H    -0.158000000    -3.740000000     3.797000000
H     2.381000000    -2.026000000     5.540000000
C     3.143000000    -3.229000000     2.545000000
H     2.630000000    -4.148000000     2.816000000
C     3.720000000    -3.042000000     1.319000000
C     3.655000000    -4.208000000     0.283000000
H     3.512000000    -5.150000000     0.816000000
H     4.646000000    -4.294000000    -0.167000000
C     2.509000000    -4.174000000    -0.657000000
C     1.265000000    -4.726000000    -0.297000000
H     1.138000000    -5.262000000     0.640000000
C     2.580000000    -3.426000000    -1.837000000
C     1.558000000    -3.438000000    -2.743000000
H     1.640000000    -2.883000000    -3.674000000
C     0.318000000    -3.913000000    -2.342000000
O    -0.748000000    -3.746000000    -3.178000000
C    -1.678000000    -2.751000000    -2.729000000
C    -2.118000000    -1.855000000    -3.837000000
C    -3.203000000    -1.000000000    -3.630000000
H    -3.696000000    -1.014000000    -2.661000000
C    -1.343000000    -1.749000000    -5.007000000
H    -0.396000000    -2.226000000    -5.248000000
O    -2.797000000    -3.390000000    -2.102000000
H    -1.260000000    -2.018000000    -2.022000000
C     0.158000000    -4.649000000    -1.149000000
C    -1.128000000    -5.308000000    -0.782000000
H    -0.961000000    -6.185000000    -0.154000000
H    -1.559000000    -5.758000000    -1.678000000
C    -2.077000000    -4.389000000    -0.064000000
C    -2.007000000    -4.355000000     1.348000000
H    -1.343000000    -5.066000000     1.832000000
C    -2.870000000    -3.428000000    -0.742000000
C    -3.680000000    -2.515000000    -0.050000000
H    -4.167000000    -1.659000000    -0.511000000
C    -3.667000000    -2.510000000     1.360000000
O    -4.430000000    -1.586000000     2.000000000
C    -3.683000000    -0.424000000     2.415000000
C    -4.297000000     0.972000000     1.994000000
C    -5.241000000     0.998000000     0.993000000
H    -5.778000000     0.096000000     0.709000000
C    -3.776000000     2.151000000     2.527000000
H    -3.145000000     2.172000000     3.412000000
O    -3.320000000    -0.447000000     3.806000000
H    -2.801000000    -0.431000000     1.758000000
C    -2.834000000    -3.394000000     2.018000000
C    -2.742000000    -3.365000000     3.527000000
H    -2.668000000    -4.362000000     3.967000000
H    -3.695000000    -2.994000000     3.912000000
C    -1.739000000    -2.330000000     3.955000000
C    -2.049000000    -0.910000000     4.035000000
C    -1.051000000    -0.041000000     4.288000000
H    -1.323000000     1.001000000     4.433000000
C     0.211000000    -0.469000000     4.573000000
O     1.098000000     0.583000000     4.864000000
C     2.021000000     0.905000000     3.795000000
H     1.509000000     0.532000000     2.897000000
C     2.231000000     2.398000000     3.516000000
C     3.171000000     2.925000000     2.663000000
H     3.981000000     2.389000000     2.174000000
C     1.271000000     3.303000000     4.050000000
H     0.392000000     2.931000000     4.571000000
C     1.285000000     4.677000000     3.807000000
O     0.320000000     5.567000000     4.293000000
C     2.253000000     5.146000000     2.959000000
H     2.308000000     6.228000000     2.874000000
C     3.249000000     4.300000000     2.457000000
O     4.281000000     4.814000000     1.718000000
C     5.297000000     4.194000000     1.105000000
C     5.210000000     3.972000000    -0.268000000
H     4.324000000     4.330000000    -0.786000000
C     6.348000000     3.630000000     1.878000000
H     6.242000000     3.702000000     2.958000000
C     7.412000000     2.946000000     1.179000000
H     8.165000000     2.435000000     1.773000000
C     7.332000000     2.835000000    -0.262000000
H     8.022000000     2.221000000    -0.836000000
C     6.174000000     3.249000000    -0.920000000
O     5.943000000     2.935000000    -2.237000000
C     5.238000000     1.905000000    -2.682000000
C     4.650000000     2.040000000    -3.866000000
H     4.750000000     2.954000000    -4.446000000
C     3.798000000     0.964000000    -4.332000000
O     3.280000000     1.109000000    -5.555000000
C     2.587000000     0.142000000    -6.169000000
C     1.238000000     0.330000000    -6.313000000
H     0.801000000     1.215000000    -5.857000000
C     3.247000000    -1.012000000    -6.652000000
H     4.298000000    -1.097000000    -6.389000000
C     2.502000000    -1.910000000    -7.392000000
H     2.974000000    -2.772000000    -7.856000000
C     1.136000000    -1.720000000    -7.530000000
H     0.481000000    -2.444000000    -8.009000000
C     0.482000000    -0.604000000    -6.948000000
O    -0.856000000    -0.476000000    -6.999000000
C    -1.743000000    -0.850000000    -6.030000000
C    -2.924000000    -0.171000000    -5.836000000
H    -3.178000000     0.515000000    -6.640000000
C    -3.573000000    -0.058000000    -4.613000000
O    -4.625000000     0.865000000    -4.471000000
C    -5.612000000     0.683000000    -3.505000000
C    -5.628000000     1.526000000    -2.336000000
H    -4.752000000     2.132000000    -2.122000000
C    -6.732000000    -0.128000000    -3.860000000
H    -6.729000000    -0.743000000    -4.756000000
C    -7.833000000    -0.037000000    -3.126000000
H    -8.726000000    -0.528000000    -3.504000000
C    -7.878000000     0.726000000    -1.967000000
H    -8.823000000     0.809000000    -1.437000000
C    -6.753000000     1.460000000    -1.533000000
O    -6.868000000     2.241000000    -0.395000000
C    -5.909000000     2.204000000     0.628000000
C    -5.403000000     3.327000000     1.213000000
H    -5.806000000     4.251000000     0.807000000
C    -4.351000000     3.319000000     2.132000000
O    -3.979000000     4.559000000     2.694000000
C    -3.145000000     4.636000000     3.828000000
C    -3.609000000     4.851000000     5.075000000
H    -4.686000000     4.830000000     5.215000000
C    -2.788000000     5.168000000     6.132000000
H    -3.198000000     5.274000000     7.134000000
C    -1.450000000     5.392000000     5.897000000
H    -0.696000000     5.682000000     6.624000000
C    -0.986000000     5.226000000     4.585000000
C    -1.813000000     4.895000000     3.530000000
H    -1.392000000     4.705000000     2.545000000
C    -0.655000000     0.911000000    -1.491000000
H    -0.706000000     0.658000000    -2.547000000
C    -0.100000000    -0.032000000    -0.667000000
H     0.318000000    -0.890000000    -1.187000000
C    -0.045000000     0.249000000     0.678000000
H     0.320000000    -0.476000000     1.429000000
C    -0.563000000     1.435000000     1.199000000
H    -0.372000000     1.595000000     2.257000000
C    -1.113000000     2.414000000     0.330000000
H    -1.420000000     3.377000000     0.728000000
C    -1.122000000     2.139000000    -0.992000000
C    -1.835000000     3.055000000    -1.970000000
O    -2.285000000     4.071000000    -1.550000000
O    -1.892000000     2.809000000    -3.155000000
O     0.532000000     7.616000000    -1.795000000
H    -0.023000000     7.070000000    -2.352000000
H     0.792000000     7.039000000    -1.078000000
O    -3.362000000     7.601000000    -2.186000000
H    -3.803000000     7.046000000    -1.543000000
H    -2.656000000     7.054000000    -2.530000000
O     1.889000000     5.557000000    -0.593000000
H     1.782000000     4.617000000    -0.449000000
H     2.361000000     5.620000000    -1.423000000
O    -3.900000000     8.592000000     0.607000000
H    -4.259000000     7.719000000     0.763000000
H    -3.040000000     8.431000000     0.218000000
O    -7.801000000     6.479000000    -0.672000000
H    -7.557000000     6.025000000    -1.478000000
H    -7.107000000     7.126000000    -0.541000000
O    -3.456000000     5.676000000     0.031000000
H    -3.004000000     5.132000000    -0.613000000
H    -3.628000000     5.086000000     0.765000000
O    -1.305000000     3.946000000    -5.762000000
H    -1.321000000     3.582000000    -4.876000000
H    -2.144000000     3.687000000    -6.142000000
O    -0.039000000     4.466000000    -8.293000000
H    -0.322000000     4.294000000    -7.396000000
H    -0.550000000     3.858000000    -8.827000000
O     1.786000000     2.872000000    -1.042000000
H     1.082000000     2.224000000    -1.044000000
H     2.348000000     2.618000000    -1.774000000
O     2.641000000     4.502000000    -6.937000000
H     1.845000000     4.015000000    -7.151000000
H     2.556000000     5.325000000    -7.419000000
O     1.260000000     4.503000000    -4.305000000
H     1.653000000     4.376000000    -5.169000000
H     0.481000000     3.948000000    -4.313000000
O    -7.270000000     2.742000000    -5.238000000
H    -7.814000000     2.174000000    -5.783000000
H    -7.602000000     2.609000000    -4.349000000
O    -4.833000000     4.199000000    -6.136000000
H    -4.850000000     4.085000000    -7.087000000
H    -5.571000000     3.678000000    -5.820000000
O     3.124000000     6.211000000    -3.153000000
H     2.434000000     5.741000000    -3.622000000
H     3.939000000     5.852000000    -3.504000000
O    -1.127000000     5.938000000    -2.992000000
H    -1.508000000     5.234000000    -2.467000000
H    -1.159000000     5.611000000    -3.891000000
O    -2.408000000     8.927000000    -6.076000000
H    -2.219000000     7.989000000    -6.071000000
H    -1.909000000     9.276000000    -5.337000000
O    -4.452000000     4.381000000    -3.267000000
H    -3.605000000     4.155000000    -2.883000000
H    -4.324000000     4.272000000    -4.209000000
O    -5.827000000     6.861000000    -4.373000000
H    -4.961000000     7.268000000    -4.329000000
H    -5.702000000     5.990000000    -3.995000000
O    -7.481000000     4.444000000    -2.818000000
H    -6.626000000     4.038000000    -2.675000000
H    -7.505000000     4.627000000    -3.758000000
