215
-1456.38312
C     4.473000000     2.436000000     2.672000000
H     4.576000000     3.028000000     1.766000000
C     4.484000000     1.011000000     2.641000000
C     4.345000000     0.285000000     3.851000000
H     4.359000000    -0.797000000     3.740000000
C     4.491000000     0.258000000     1.351000000
O     5.103000000     1.046000000     0.335000000
H     3.526000000     0.182000000     0.829000000
O     5.153000000    -1.010000000     1.333000000
C     4.498000000    -1.981000000     0.655000000
C     3.463000000    -2.580000000     1.314000000
H     3.124000000    -2.436000000     2.336000000
C     2.649000000    -3.486000000     0.672000000
O     1.573000000    -4.017000000     1.407000000
C     2.797000000    -3.629000000    -0.741000000
C     1.932000000    -4.670000000    -1.418000000
H     2.353000000    -5.129000000    -2.316000000
C     0.511000000    -4.218000000    -1.909000000
C     0.370000000    -3.694000000    -3.116000000
H     1.194000000    -3.591000000    -3.818000000
H     1.735000000    -5.413000000    -0.642000000
C     3.783000000    -2.914000000    -1.420000000
H     3.881000000    -2.905000000    -2.503000000
C     4.658000000    -2.079000000    -0.735000000
C     5.571000000    -1.162000000    -1.467000000
H     6.055000000    -1.726000000    -2.266000000
H     6.444000000    -0.868000000    -0.879000000
C     4.722000000     0.058000000    -1.836000000
C     4.005000000     0.103000000    -2.984000000
H     4.188000000    -0.730000000    -3.658000000
C     4.507000000     1.068000000    -0.908000000
C     3.676000000     2.142000000    -1.156000000
H     3.587000000     2.953000000    -0.438000000
C     3.012000000     2.150000000    -2.354000000
O     2.143000000     3.224000000    -2.555000000
C     0.818000000     2.938000000    -2.706000000
C    -0.021000000     3.812000000    -1.746000000
C    -1.396000000     4.060000000    -1.957000000
H    -1.884000000     3.658000000    -2.841000000
C     0.543000000     4.283000000    -0.606000000
H     1.592000000     4.075000000    -0.407000000
O     0.311000000     2.952000000    -4.100000000
H     0.655000000     1.924000000    -2.312000000
C     3.164000000     1.120000000    -3.300000000
C     2.595000000     1.204000000    -4.684000000
H     3.294000000     0.636000000    -5.300000000
H     2.574000000     2.223000000    -5.076000000
C     1.131000000     0.781000000    -4.805000000
C     0.817000000    -0.588000000    -4.885000000
H     1.611000000    -1.313000000    -5.048000000
C     0.029000000     1.601000000    -4.438000000
C    -1.261000000     1.156000000    -4.345000000
H    -2.128000000     1.720000000    -4.011000000
C    -1.558000000    -0.182000000    -4.529000000
O    -2.860000000    -0.641000000    -4.331000000
C    -3.097000000    -1.223000000    -3.047000000
C    -4.451000000    -0.847000000    -2.491000000
C    -4.991000000     0.374000000    -2.825000000
H    -4.497000000     1.109000000    -3.456000000
C    -5.078000000    -1.698000000    -1.517000000
H    -4.564000000    -2.605000000    -1.209000000
O    -3.066000000    -2.689000000    -3.161000000
H    -2.329000000    -0.880000000    -2.338000000
C    -0.506000000    -1.113000000    -4.711000000
C    -0.914000000    -2.554000000    -4.940000000
H    -0.284000000    -3.015000000    -5.703000000
H    -1.928000000    -2.685000000    -5.324000000
C    -0.852000000    -3.260000000    -3.644000000
C    -1.968000000    -3.394000000    -2.840000000
C    -1.820000000    -3.848000000    -1.515000000
H    -2.581000000    -3.687000000    -0.756000000
C    -0.579000000    -4.313000000    -1.064000000
O    -0.437000000    -4.544000000     0.333000000
C     0.247000000    -3.559000000     1.137000000
H     0.263000000    -2.571000000     0.654000000
C    -0.400000000    -3.350000000     2.435000000
C     0.271000000    -3.270000000     3.639000000
H     1.348000000    -3.400000000     3.708000000
C    -1.703000000    -2.864000000     2.384000000
H    -2.155000000    -2.610000000     1.429000000
C    -2.458000000    -2.827000000     3.607000000
O    -3.832000000    -2.482000000     3.513000000
C    -1.809000000    -2.941000000     4.829000000
H    -2.459000000    -2.809000000     5.690000000
C    -0.419000000    -3.155000000     4.827000000
O     0.165000000    -3.180000000     6.100000000
C     1.511000000    -2.734000000     6.280000000
C     1.892000000    -1.382000000     6.087000000
H     1.182000000    -0.661000000     5.690000000
C     2.374000000    -3.609000000     6.859000000
H     2.126000000    -4.627000000     7.149000000
C     3.625000000    -3.164000000     7.192000000
H     4.343000000    -3.835000000     7.657000000
C     4.086000000    -1.893000000     6.890000000
H     5.140000000    -1.648000000     7.001000000
C     3.241000000    -1.012000000     6.240000000
O     3.666000000     0.279000000     6.219000000
C     4.100000000     0.982000000     5.083000000
C     4.128000000     2.392000000     5.036000000
H     3.773000000     2.990000000     5.871000000
C     4.392000000     3.145000000     3.873000000
O     4.350000000     4.519000000     3.892000000
C     3.662000000     5.205000000     3.018000000
C     2.337000000     4.865000000     2.732000000
H     1.856000000     4.083000000     3.313000000
C     4.304000000     6.160000000     2.272000000
H     5.380000000     6.275000000     2.383000000
C     3.667000000     6.769000000     1.186000000
H     4.281000000     7.399000000     0.547000000
C     2.308000000     6.492000000     0.939000000
H     1.748000000     6.863000000     0.084000000
C     1.589000000     5.638000000     1.810000000
O     0.289000000     5.342000000     1.525000000
C    -0.203000000     5.021000000     0.292000000
C    -1.584000000     5.278000000     0.080000000
H    -2.182000000     5.832000000     0.799000000
C    -2.188000000     4.736000000    -1.080000000
O    -3.528000000     4.898000000    -1.306000000
C    -4.352000000     4.474000000    -2.336000000
C    -5.162000000     3.350000000    -2.050000000
H    -5.056000000     2.830000000    -1.101000000
C    -4.577000000     5.273000000    -3.480000000
H    -4.014000000     6.190000000    -3.630000000
C    -5.671000000     4.889000000    -4.347000000
H    -5.912000000     5.456000000    -5.242000000
C    -6.343000000     3.682000000    -4.166000000
H    -7.158000000     3.294000000    -4.772000000
C    -6.121000000     2.973000000    -3.000000000
O    -6.881000000     1.826000000    -2.763000000
C    -6.250000000     0.686000000    -2.338000000
C    -6.951000000    -0.090000000    -1.400000000
H    -7.871000000     0.207000000    -0.903000000
C    -6.249000000    -1.253000000    -0.997000000
O    -6.910000000    -2.087000000    -0.143000000
C    -6.256000000    -2.859000000     0.823000000
C    -6.740000000    -4.144000000     1.050000000
H    -7.562000000    -4.569000000     0.480000000
C    -6.171000000    -4.925000000     2.055000000
H    -6.602000000    -5.892000000     2.300000000
C    -5.193000000    -4.388000000     2.889000000
H    -4.864000000    -5.057000000     3.680000000
C    -4.687000000    -3.114000000     2.653000000
C    -5.219000000    -2.439000000     1.578000000
H    -4.990000000    -1.380000000     1.489000000
C    -2.297000000     0.219000000     0.768000000
H    -3.332000000     0.320000000     0.449000000
C    -1.198000000     0.228000000    -0.173000000
H    -1.257000000     0.391000000    -1.246000000
C     0.061000000     0.106000000     0.343000000
H     0.881000000     0.097000000    -0.330000000
C     0.268000000     0.094000000     1.712000000
H     1.213000000    -0.208000000     2.157000000
C    -0.806000000     0.193000000     2.606000000
H    -0.681000000     0.067000000     3.679000000
C    -2.140000000     0.349000000     2.183000000
C    -3.233000000     0.482000000     3.192000000
O    -2.995000000     0.774000000     4.354000000
O    -4.396000000     0.607000000     2.734000000
O    -3.335000000     5.512000000     4.512000000
H    -3.760000000     5.107000000     5.268000000
H    -2.403000000     5.330000000     4.635000000
O    -8.532000000    -1.606000000     2.824000000
H    -7.787000000    -1.690000000     3.420000000
H    -8.633000000    -0.663000000     2.698000000
O    -0.212000000     0.117000000     8.307000000
H    -0.561000000    -0.723000000     8.604000000
H     0.729000000     0.058000000     8.472000000
O    -0.799000000     1.588000000     5.829000000
H    -1.545000000     1.336000000     5.285000000
H    -0.887000000     1.055000000     6.618000000
O    -3.725000000    -0.402000000     6.668000000
H    -3.389000000    -0.167000000     5.803000000
H    -4.676000000    -0.412000000     6.562000000
O    -3.393000000     2.766000000     6.611000000
H    -2.483000000     2.734000000     6.315000000
H    -3.826000000     2.062000000     6.128000000
O    -6.386000000    -1.503000000     4.655000000
H    -5.467000000    -1.770000000     4.623000000
H    -6.357000000    -0.565000000     4.842000000
O    -9.099000000     0.930000000     2.247000000
H    -9.566000000     1.030000000     1.418000000
H    -8.286000000     1.421000000     2.124000000
O     1.320000000     3.564000000     6.267000000
H     0.595000000     3.109000000     5.839000000
H     1.470000000     3.071000000     7.073000000
O    -7.639000000     2.993000000     4.874000000
H    -7.410000000     3.695000000     4.265000000
H    -8.309000000     3.375000000     5.440000000
O    -6.693000000     4.712000000     2.880000000
H    -5.776000000     4.721000000     2.606000000
H    -6.701000000     5.194000000     3.707000000
O    -2.798000000     1.707000000     9.070000000
H    -1.926000000     1.316000000     9.110000000
H    -2.855000000     2.075000000     8.188000000
O    -4.107000000     3.528000000     2.383000000
H    -3.809000000     2.621000000     2.445000000
H    -3.788000000     3.940000000     3.186000000
O    -6.375000000     1.694000000     7.823000000
H    -7.241000000     1.336000000     7.627000000
H    -5.847000000     1.479000000     7.055000000
O    -5.177000000     4.121000000     8.481000000
H    -5.855000000     3.448000000     8.416000000
H    -4.561000000     3.908000000     7.780000000
O    -6.338000000     2.132000000     1.376000000
H    -6.079000000     2.903000000     1.881000000
H    -5.792000000     1.425000000     1.722000000
O    -3.584000000    -2.125000000     9.096000000
H    -2.713000000    -2.167000000     9.490000000
H    -3.523000000    -1.418000000     8.453000000
O    -5.634000000     1.053000000     5.156000000
H    -6.193000000     1.801000000     4.947000000
H    -5.001000000     1.018000000     4.439000000
O    -6.963000000    -4.220000000     5.734000000
H    -7.078000000    -3.285000000     5.568000000
H    -6.134000000    -4.278000000     6.209000000
