215
-1463.88819
C     3.944000000     1.433000000     1.722000000
H     4.079000000     1.576000000     0.652000000
C     3.823000000     0.183000000     2.337000000
C     3.753000000     0.078000000     3.726000000
H     3.871000000    -0.899000000     4.188000000
C     3.677000000    -1.060000000     1.456000000
O     4.711000000    -0.932000000     0.433000000
H     2.709000000    -0.904000000     0.959000000
O     3.879000000    -2.270000000     2.085000000
C     2.932000000    -3.275000000     1.871000000
C     1.881000000    -3.439000000     2.737000000
H     1.900000000    -2.888000000     3.673000000
C     0.731000000    -4.089000000     2.295000000
O    -0.339000000    -4.024000000     3.166000000
C     0.683000000    -4.810000000     1.126000000
C    -0.554000000    -5.515000000     0.644000000
H    -0.143000000    -6.217000000    -0.084000000
C    -1.545000000    -4.585000000     0.048000000
C    -1.586000000    -4.523000000    -1.310000000
H    -0.936000000    -5.230000000    -1.818000000
H    -1.005000000    -6.187000000     1.378000000
C     1.824000000    -4.708000000     0.262000000
H     1.795000000    -5.059000000    -0.766000000
C     2.912000000    -3.928000000     0.617000000
C     4.051000000    -3.798000000    -0.344000000
H     4.209000000    -4.730000000    -0.891000000
H     4.945000000    -3.793000000     0.283000000
C     3.897000000    -2.573000000    -1.220000000
C     3.375000000    -2.801000000    -2.531000000
H     3.041000000    -3.803000000    -2.791000000
C     4.351000000    -1.261000000    -0.881000000
C     4.230000000    -0.240000000    -1.833000000
H     4.450000000     0.794000000    -1.578000000
C     3.559000000    -0.499000000    -3.042000000
O     3.305000000     0.608000000    -3.734000000
C     2.013000000     1.061000000    -3.703000000
C     1.921000000     2.602000000    -3.768000000
C     0.724000000     3.281000000    -4.099000000
H    -0.142000000     2.642000000    -4.255000000
C     2.935000000     3.410000000    -3.194000000
H     3.915000000     2.985000000    -2.995000000
O     1.286000000     0.592000000    -4.861000000
H     1.533000000     0.711000000    -2.777000000
C     3.158000000    -1.753000000    -3.415000000
C     2.367000000    -1.969000000    -4.724000000
H     2.508000000    -2.962000000    -5.157000000
H     2.627000000    -1.324000000    -5.566000000
C     0.898000000    -1.706000000    -4.537000000
C     0.116000000    -2.762000000    -4.146000000
H     0.470000000    -3.790000000    -4.129000000
C     0.415000000    -0.416000000    -4.695000000
C    -0.938000000    -0.224000000    -4.451000000
H    -1.380000000     0.769000000    -4.440000000
C    -1.769000000    -1.205000000    -4.028000000
O    -3.119000000    -0.831000000    -3.858000000
C    -3.470000000    -0.746000000    -2.468000000
C    -4.257000000     0.477000000    -2.006000000
C    -4.267000000     1.615000000    -2.847000000
H    -3.720000000     1.592000000    -3.787000000
C    -5.024000000     0.509000000    -0.871000000
H    -5.189000000    -0.384000000    -0.273000000
O    -4.088000000    -1.877000000    -2.015000000
H    -2.528000000    -0.703000000    -1.902000000
C    -1.288000000    -2.530000000    -3.963000000
C    -2.236000000    -3.690000000    -3.535000000
H    -1.768000000    -4.620000000    -3.866000000
H    -3.162000000    -3.522000000    -4.090000000
C    -2.355000000    -3.602000000    -2.008000000
C    -3.324000000    -2.831000000    -1.363000000
C    -3.219000000    -2.821000000     0.067000000
H    -3.813000000    -2.151000000     0.683000000
C    -2.413000000    -3.678000000     0.748000000
O    -2.492000000    -3.625000000     2.105000000
C    -1.377000000    -3.025000000     2.827000000
H    -0.878000000    -2.327000000     2.138000000
C    -1.805000000    -2.216000000     4.034000000
C    -1.036000000    -1.977000000     5.120000000
H    -0.043000000    -2.398000000     5.248000000
C    -3.044000000    -1.560000000     3.920000000
H    -3.651000000    -1.764000000     3.042000000
C    -3.519000000    -0.784000000     4.983000000
O    -4.624000000     0.016000000     4.790000000
C    -2.702000000    -0.533000000     6.076000000
H    -3.131000000     0.098000000     6.850000000
C    -1.474000000    -1.138000000     6.185000000
O    -0.501000000    -0.733000000     7.111000000
C     0.875000000    -0.936000000     7.063000000
C     1.627000000     0.136000000     6.639000000
H     1.083000000     1.004000000     6.275000000
C     1.488000000    -2.065000000     7.569000000
H     0.956000000    -2.924000000     7.969000000
C     2.884000000    -2.115000000     7.522000000
H     3.439000000    -2.965000000     7.911000000
C     3.602000000    -1.076000000     6.934000000
H     4.671000000    -1.110000000     6.742000000
C     2.970000000     0.009000000     6.487000000
O     3.680000000     1.048000000     5.898000000
C     3.549000000     1.222000000     4.520000000
C     3.612000000     2.435000000     3.883000000
H     3.592000000     3.395000000     4.393000000
C     3.899000000     2.562000000     2.522000000
O     4.038000000     3.811000000     1.985000000
C     4.668000000     4.195000000     0.785000000
C     3.922000000     4.564000000    -0.308000000
H     2.839000000     4.467000000    -0.334000000
C     6.026000000     4.479000000     0.858000000
H     6.616000000     4.257000000     1.743000000
C     6.736000000     5.032000000    -0.239000000
H     7.805000000     5.224000000    -0.221000000
C     5.985000000     5.423000000    -1.314000000
H     6.414000000     5.885000000    -2.200000000
C     4.609000000     5.149000000    -1.397000000
O     3.910000000     5.516000000    -2.572000000
C     2.815000000     4.789000000    -3.027000000
C     1.592000000     5.419000000    -3.370000000
H     1.529000000     6.503000000    -3.323000000
C     0.567000000     4.669000000    -3.926000000
O    -0.541000000     5.419000000    -4.223000000
C    -1.756000000     4.991000000    -4.606000000
C    -2.627000000     4.403000000    -3.681000000
H    -2.268000000     4.227000000    -2.670000000
C    -2.125000000     5.401000000    -5.858000000
H    -1.465000000     5.864000000    -6.588000000
C    -3.454000000     5.191000000    -6.244000000
H    -3.738000000     5.359000000    -7.280000000
C    -4.318000000     4.641000000    -5.329000000
H    -5.371000000     4.471000000    -5.534000000
C    -3.940000000     4.285000000    -4.023000000
O    -4.991000000     3.930000000    -3.135000000
C    -4.930000000     2.797000000    -2.441000000
C    -5.638000000     2.820000000    -1.206000000
H    -6.151000000     3.693000000    -0.810000000
C    -5.738000000     1.625000000    -0.479000000
O    -6.432000000     1.691000000     0.732000000
C    -6.426000000     0.713000000     1.651000000
C    -7.460000000    -0.128000000     1.750000000
H    -8.137000000    -0.149000000     0.899000000
C    -7.374000000    -1.167000000     2.696000000
H    -7.950000000    -2.085000000     2.611000000
C    -6.511000000    -1.120000000     3.732000000
H    -6.411000000    -1.983000000     4.385000000
C    -5.573000000    -0.061000000     3.773000000
C    -5.517000000     0.801000000     2.678000000
H    -4.684000000     1.499000000     2.691000000
C    -1.138000000     1.810000000    -0.278000000
H    -1.656000000     2.553000000    -0.878000000
C    -0.647000000     0.673000000    -0.910000000
H    -0.566000000     0.554000000    -1.988000000
C     0.013000000    -0.317000000    -0.150000000
H     0.523000000    -0.992000000    -0.726000000
C     0.043000000    -0.236000000     1.203000000
H     0.545000000    -0.908000000     1.895000000
C    -0.576000000     0.804000000     1.855000000
H    -0.688000000     0.762000000     2.936000000
C    -1.239000000     1.834000000     1.130000000
C    -1.877000000     2.986000000     1.802000000
O    -2.241000000     2.867000000     2.930000000
O    -2.018000000     4.085000000     1.260000000
O    -0.312000000     2.914000000     4.858000000
H     0.220000000     3.401000000     4.229000000
H    -1.163000000     2.820000000     4.430000000
O    -3.262000000     4.288000000     5.011000000
H    -4.196000000     4.102000000     5.107000000
H    -2.974000000     3.710000000     4.305000000
O     1.564000000     4.771000000     3.047000000
H     2.500000000     4.722000000     2.852000000
H     1.142000000     4.804000000     2.188000000
O    -3.876000000     7.244000000     5.799000000
H    -4.819000000     7.108000000     5.892000000
H    -3.800000000     8.006000000     5.224000000
O    -1.873000000     8.751000000     1.365000000
H    -1.022000000     8.354000000     1.181000000
H    -2.359000000     8.070000000     1.831000000
O    -2.843000000     9.286000000     4.290000000
H    -2.047000000     8.767000000     4.176000000
H    -2.979000000     9.706000000     3.440000000
O     0.565000000     6.588000000     5.025000000
H    -0.139000000     6.749000000     4.396000000
H     1.082000000     5.885000000     4.632000000
O    -1.127000000     3.145000000     7.807000000
H    -1.852000000     3.770000000     7.814000000
H    -0.834000000     3.128000000     6.896000000
O    -4.798000000     6.735000000     3.368000000
H    -4.800000000     6.368000000     2.484000000
H    -3.934000000     6.516000000     3.716000000
O     0.500000000     7.456000000     0.383000000
H     0.481000000     6.524000000     0.166000000
H     1.385000000     7.608000000     0.714000000
O    -3.825000000     5.769000000     0.894000000
H    -3.198000000     5.095000000     1.157000000
H    -4.638000000     5.291000000     0.733000000
O    -6.188000000     4.218000000     1.902000000
H    -6.310000000     3.325000000     1.581000000
H    -6.984000000     4.679000000     1.638000000
O    -0.041000000     5.011000000    -0.445000000
H    -0.578000000     4.705000000     0.286000000
H    -0.282000000     4.440000000    -1.175000000
O    -2.072000000     6.677000000    -1.509000000
H    -2.802000000     6.355000000    -0.980000000
H    -1.321000000     6.663000000    -0.916000000
O    -3.926000000     4.229000000     7.924000000
H    -4.379000000     3.441000000     7.625000000
H    -4.005000000     4.842000000     7.193000000
O    -5.794000000     3.449000000     4.691000000
H    -6.616000000     3.840000000     4.988000000
H    -5.759000000     3.648000000     3.756000000
O    -1.689000000     6.909000000     7.260000000
H    -1.123000000     6.576000000     6.564000000
H    -2.551000000     6.988000000     6.851000000
O    -5.355000000     1.901000000     7.158000000
H    -5.534000000     2.224000000     6.275000000
H    -5.596000000     0.975000000     7.127000000
O    -1.726000000     5.865000000     3.396000000
H    -2.233000000     5.335000000     4.012000000
H    -1.383000000     5.234000000     2.763000000
