215
-1431.95405
C     4.271000000     1.280000000     2.446000000
H     4.397000000     1.624000000     1.423000000
C     4.037000000    -0.097000000     2.690000000
C     3.732000000    -0.565000000     3.953000000
H     3.437000000    -1.603000000     4.082000000
C     3.919000000    -1.065000000     1.539000000
O     4.817000000    -0.631000000     0.448000000
H     2.913000000    -0.909000000     1.122000000
O     4.085000000    -2.440000000     1.800000000
C     3.161000000    -3.270000000     1.253000000
C     2.095000000    -3.635000000     2.028000000
H     2.121000000    -3.462000000     3.101000000
C     0.999000000    -4.249000000     1.516000000
O    -0.173000000    -4.309000000     2.308000000
C     0.976000000    -4.496000000     0.157000000
C    -0.178000000    -5.270000000    -0.385000000
H     0.022000000    -6.063000000    -1.110000000
C    -1.292000000    -4.485000000    -1.089000000
C    -1.252000000    -4.172000000    -2.466000000
H    -0.640000000    -4.584000000    -3.264000000
H    -0.644000000    -5.823000000     0.432000000
C     2.038000000    -4.131000000    -0.710000000
H     2.135000000    -4.427000000    -1.751000000
C     3.139000000    -3.583000000    -0.099000000
C     4.366000000    -3.202000000    -0.849000000
H     4.513000000    -3.923000000    -1.656000000
H     5.233000000    -3.214000000    -0.185000000
C     4.213000000    -1.866000000    -1.541000000
C     3.701000000    -1.878000000    -2.818000000
H     3.489000000    -2.848000000    -3.259000000
C     4.411000000    -0.672000000    -0.867000000
C     4.320000000     0.518000000    -1.607000000
H     4.494000000     1.495000000    -1.165000000
C     3.853000000     0.487000000    -2.939000000
O     3.426000000     1.691000000    -3.511000000
C     2.018000000     2.127000000    -3.457000000
C     1.850000000     3.541000000    -3.042000000
C     0.949000000     4.258000000    -3.691000000
H     0.242000000     3.742000000    -4.337000000
C     2.550000000     4.150000000    -2.024000000
H     3.398000000     3.650000000    -1.563000000
O     1.354000000     1.714000000    -4.712000000
H     1.512000000     1.549000000    -2.670000000
C     3.395000000    -0.692000000    -3.511000000
C     2.675000000    -0.751000000    -4.874000000
H     2.907000000    -1.656000000    -5.440000000
H     3.110000000     0.108000000    -5.389000000
C     1.146000000    -0.643000000    -4.762000000
C     0.332000000    -1.756000000    -4.539000000
H     0.824000000    -2.724000000    -4.510000000
C     0.568000000     0.642000000    -4.635000000
C    -0.758000000     0.776000000    -4.338000000
H    -1.207000000     1.754000000    -4.186000000
C    -1.666000000    -0.292000000    -4.348000000
O    -2.942000000    -0.009000000    -3.917000000
C    -3.334000000    -0.319000000    -2.554000000
C    -4.126000000     0.699000000    -1.899000000
C    -3.836000000     2.072000000    -2.126000000
H    -3.039000000     2.403000000    -2.787000000
C    -5.133000000     0.381000000    -1.019000000
H    -5.474000000    -0.639000000    -0.864000000
O    -3.941000000    -1.601000000    -2.530000000
H    -2.460000000    -0.360000000    -1.888000000
C    -1.101000000    -1.568000000    -4.583000000
C    -1.964000000    -2.808000000    -4.453000000
H    -1.445000000    -3.601000000    -4.995000000
H    -2.950000000    -2.703000000    -4.909000000
C    -2.133000000    -3.146000000    -2.965000000
C    -3.116000000    -2.613000000    -2.174000000
C    -3.256000000    -3.083000000    -0.822000000
H    -4.053000000    -2.729000000    -0.174000000
C    -2.247000000    -3.948000000    -0.313000000
O    -2.278000000    -4.023000000     1.113000000
C    -1.289000000    -3.402000000     2.013000000
H    -0.873000000    -2.501000000     1.540000000
C    -1.941000000    -2.889000000     3.295000000
C    -1.199000000    -2.941000000     4.503000000
H    -0.208000000    -3.384000000     4.548000000
C    -3.095000000    -2.184000000     3.203000000
H    -3.613000000    -2.035000000     2.259000000
C    -3.582000000    -1.539000000     4.304000000
O    -4.905000000    -1.078000000     4.321000000
C    -2.932000000    -1.678000000     5.558000000
H    -3.463000000    -1.247000000     6.403000000
C    -1.621000000    -2.265000000     5.623000000
O    -0.924000000    -2.309000000     6.819000000
C     0.440000000    -2.246000000     6.790000000
C     1.165000000    -1.080000000     6.500000000
H     0.725000000    -0.143000000     6.170000000
C     1.080000000    -3.476000000     7.151000000
H     0.419000000    -4.335000000     7.234000000
C     2.475000000    -3.501000000     7.240000000
H     3.062000000    -4.388000000     7.463000000
C     3.214000000    -2.332000000     6.965000000
H     4.301000000    -2.356000000     6.959000000
C     2.575000000    -1.151000000     6.570000000
O     3.340000000    -0.043000000     6.287000000
C     3.840000000     0.281000000     5.047000000
C     4.111000000     1.634000000     4.819000000
H     4.143000000     2.334000000     5.649000000
C     4.336000000     2.149000000     3.557000000
O     4.434000000     3.504000000     3.438000000
C     4.669000000     4.022000000     2.153000000
C     3.678000000     4.784000000     1.497000000
H     2.714000000     4.820000000     1.999000000
C     5.827000000     3.656000000     1.433000000
H     6.533000000     3.044000000     1.988000000
C     6.056000000     4.149000000     0.166000000
H     6.987000000     3.843000000    -0.305000000
C     5.092000000     4.947000000    -0.423000000
H     5.226000000     5.400000000    -1.402000000
C     3.893000000     5.281000000     0.222000000
O     2.894000000     5.926000000    -0.450000000
C     2.257000000     5.450000000    -1.594000000
C     1.333000000     6.254000000    -2.221000000
H     0.989000000     7.226000000    -1.875000000
C     0.700000000     5.636000000    -3.344000000
O    -0.387000000     6.273000000    -3.792000000
C    -1.616000000     5.647000000    -3.924000000
C    -2.374000000     5.172000000    -2.815000000
H    -1.939000000     5.267000000    -1.823000000
C    -2.295000000     5.683000000    -5.146000000
H    -1.795000000     5.939000000    -6.077000000
C    -3.650000000     5.274000000    -5.266000000
H    -4.081000000     5.221000000    -6.263000000
C    -4.408000000     4.978000000    -4.165000000
H    -5.467000000     4.737000000    -4.224000000
C    -3.749000000     4.841000000    -2.933000000
O    -4.359000000     4.404000000    -1.817000000
C    -4.666000000     3.074000000    -1.585000000
C    -5.735000000     2.707000000    -0.786000000
H    -6.335000000     3.482000000    -0.316000000
C    -5.915000000     1.393000000    -0.414000000
O    -6.857000000     1.041000000     0.525000000
C    -6.676000000    -0.067000000     1.305000000
C    -7.634000000    -1.095000000     1.195000000
H    -8.275000000    -0.973000000     0.325000000
C    -7.562000000    -2.157000000     2.079000000
H    -8.145000000    -3.055000000     1.891000000
C    -6.576000000    -2.177000000     3.084000000
H    -6.490000000    -3.023000000     3.762000000
C    -5.743000000    -1.093000000     3.243000000
C    -5.680000000    -0.075000000     2.321000000
H    -4.910000000     0.688000000     2.396000000
C    -2.273000000     1.921000000     2.800000000
H    -2.959000000     2.739000000     3.003000000
C    -2.074000000     1.605000000     1.478000000
H    -2.641000000     2.165000000     0.738000000
C    -1.032000000     0.775000000     1.125000000
H    -0.893000000     0.527000000     0.063000000
C    -0.210000000     0.301000000     2.051000000
H     0.621000000    -0.317000000     1.719000000
C    -0.486000000     0.505000000     3.392000000
H     0.207000000     0.143000000     4.147000000
C    -1.527000000     1.297000000     3.812000000
C    -1.748000000     1.674000000     5.236000000
O    -0.773000000     1.824000000     5.967000000
O    -2.805000000     1.933000000     5.712000000
O     0.642000000     3.815000000     3.988000000
H     0.100000000     3.328000000     4.608000000
H     1.539000000     3.552000000     4.195000000
O    -2.536000000     5.388000000     1.563000000
H    -2.360000000     6.319000000     1.426000000
H    -1.670000000     4.979000000     1.567000000
O    -5.224000000     0.914000000     6.653000000
H    -5.606000000     1.695000000     7.053000000
H    -4.435000000     1.233000000     6.214000000
O    -1.967000000     3.648000000     7.952000000
H    -1.434000000     3.399000000     7.197000000
H    -2.810000000     3.221000000     7.801000000
O    -2.890000000     5.899000000     9.328000000
H    -3.436000000     5.660000000    10.078000000
H    -2.799000000     5.087000000     8.830000000
O    -2.288000000     0.265000000     8.120000000
H    -2.020000000    -0.503000000     7.615000000
H    -2.095000000     1.007000000     7.548000000
O    -4.871000000     5.299000000     2.988000000
H    -4.084000000     5.522000000     2.492000000
H    -5.581000000     5.351000000     2.348000000
O     1.009000000     2.077000000     8.031000000
H     1.507000000     2.870000000     7.831000000
H     0.528000000     1.887000000     7.226000000
O    -3.704000000    -1.249000000     9.720000000
H    -3.406000000    -0.678000000     9.012000000
H    -4.330000000    -0.716000000    10.210000000
O     0.704000000     6.623000000     5.489000000
H     0.698000000     5.916000000     4.843000000
H     0.235000000     7.340000000     5.063000000
O     0.206000000     3.876000000     1.321000000
H    -0.196000000     3.030000000     1.122000000
H     0.250000000     3.902000000     2.276000000
O    -1.411000000    -0.020000000    11.075000000
H    -0.962000000     0.780000000    10.801000000
H    -1.847000000    -0.333000000    10.283000000
O    -1.687000000     7.744000000     6.629000000
H    -1.363000000     6.922000000     6.998000000
H    -2.111000000     7.488000000     5.811000000
O    -7.754000000     3.032000000     5.442000000
H    -6.825000000     3.035000000     5.214000000
H    -8.173000000     2.538000000     4.737000000
O    -4.993000000     3.393000000     7.900000000
H    -5.037000000     4.287000000     7.561000000
H    -5.718000000     3.337000000     8.523000000
O    -2.793000000     6.812000000     4.322000000
H    -2.593000000     6.053000000     3.775000000
H    -3.737000000     6.757000000     4.472000000
O    -0.489000000     2.361000000    10.088000000
H    -1.060000000     2.929000000     9.570000000
H     0.209000000     2.109000000     9.483000000
O    -5.246000000     3.252000000     4.550000000
H    -5.096000000     4.063000000     4.065000000
H    -4.395000000     3.042000000     4.935000000
O    -4.533000000     1.514000000     9.966000000
H    -3.941000000     1.575000000     9.216000000
H    -5.406000000     1.462000000     9.578000000
