215
-1435.89524
C     4.602000000     1.496000000     1.819000000
H     5.144000000     1.678000000     0.894000000
C     4.043000000     0.246000000     2.161000000
C     3.306000000     0.170000000     3.357000000
H     2.803000000    -0.764000000     3.595000000
C     4.050000000    -0.868000000     1.061000000
O     5.028000000    -0.772000000     0.075000000
H     3.098000000    -0.749000000     0.523000000
O     4.194000000    -2.221000000     1.678000000
C     3.264000000    -3.247000000     1.306000000
C     2.237000000    -3.552000000     2.183000000
H     2.233000000    -3.165000000     3.199000000
C     1.066000000    -4.197000000     1.733000000
O     0.046000000    -4.271000000     2.597000000
C     1.073000000    -4.752000000     0.468000000
C    -0.126000000    -5.573000000    -0.029000000
H     0.187000000    -6.348000000    -0.731000000
C    -1.167000000    -4.693000000    -0.638000000
C    -1.184000000    -4.255000000    -1.981000000
H    -0.347000000    -4.573000000    -2.598000000
H    -0.459000000    -6.110000000     0.861000000
C     2.231000000    -4.564000000    -0.348000000
H     2.336000000    -5.126000000    -1.273000000
C     3.242000000    -3.683000000    -0.002000000
C     4.318000000    -3.392000000    -1.042000000
H     4.275000000    -4.198000000    -1.778000000
H     5.248000000    -3.461000000    -0.475000000
C     4.105000000    -2.049000000    -1.775000000
C     3.427000000    -2.111000000    -3.018000000
H     3.114000000    -3.050000000    -3.467000000
C     4.468000000    -0.835000000    -1.191000000
C     4.250000000     0.377000000    -1.887000000
H     4.463000000     1.387000000    -1.548000000
C     3.512000000     0.278000000    -3.070000000
O     3.006000000     1.422000000    -3.520000000
C     1.690000000     1.813000000    -3.352000000
C     1.611000000     3.323000000    -2.960000000
C     0.334000000     3.914000000    -3.106000000
H    -0.505000000     3.313000000    -3.449000000
C     2.684000000     4.043000000    -2.423000000
H     3.662000000     3.580000000    -2.317000000
O     1.085000000     1.584000000    -4.551000000
H     1.250000000     1.284000000    -2.495000000
C     3.038000000    -0.940000000    -3.621000000
C     2.322000000    -0.975000000    -4.928000000
H     2.459000000    -1.920000000    -5.458000000
H     2.738000000    -0.219000000    -5.597000000
C     0.809000000    -0.789000000    -4.776000000
C    -0.004000000    -1.886000000    -4.617000000
H     0.448000000    -2.864000000    -4.760000000
C     0.328000000     0.428000000    -4.564000000
C    -0.997000000     0.583000000    -4.231000000
H    -1.453000000     1.544000000    -4.006000000
C    -1.833000000    -0.492000000    -4.005000000
O    -3.104000000    -0.269000000    -3.595000000
C    -3.471000000    -0.541000000    -2.240000000
C    -4.520000000     0.427000000    -1.807000000
C    -4.486000000     1.757000000    -2.160000000
H    -3.702000000     1.958000000    -2.886000000
C    -5.517000000     0.058000000    -0.940000000
H    -5.601000000    -0.983000000    -0.637000000
O    -3.917000000    -1.863000000    -2.019000000
H    -2.606000000    -0.238000000    -1.633000000
C    -1.308000000    -1.770000000    -4.286000000
C    -2.088000000    -3.030000000    -3.976000000
H    -1.561000000    -3.883000000    -4.408000000
H    -3.136000000    -3.038000000    -4.281000000
C    -2.135000000    -3.348000000    -2.449000000
C    -3.116000000    -2.875000000    -1.649000000
C    -3.079000000    -3.228000000    -0.320000000
H    -3.853000000    -2.789000000     0.304000000
C    -2.075000000    -4.112000000     0.192000000
O    -1.996000000    -4.373000000     1.516000000
C    -1.129000000    -3.489000000     2.267000000
H    -0.792000000    -2.658000000     1.630000000
C    -1.729000000    -2.851000000     3.508000000
C    -0.925000000    -2.714000000     4.702000000
H     0.114000000    -3.027000000     4.760000000
C    -2.988000000    -2.291000000     3.407000000
H    -3.439000000    -2.468000000     2.434000000
C    -3.522000000    -1.617000000     4.482000000
O    -4.731000000    -0.970000000     4.382000000
C    -2.709000000    -1.394000000     5.596000000
H    -3.003000000    -0.820000000     6.471000000
C    -1.438000000    -1.972000000     5.707000000
O    -0.759000000    -1.843000000     6.874000000
C     0.608000000    -1.427000000     6.929000000
C     1.010000000    -0.272000000     6.350000000
H     0.272000000     0.299000000     5.791000000
C     1.477000000    -2.177000000     7.689000000
H     1.218000000    -3.019000000     8.326000000
C     2.846000000    -1.893000000     7.713000000
H     3.547000000    -2.504000000     8.277000000
C     3.303000000    -0.685000000     7.003000000
H     4.338000000    -0.365000000     7.086000000
C     2.380000000     0.017000000     6.230000000
O     2.816000000     1.106000000     5.583000000
C     3.386000000     1.129000000     4.371000000
C     4.051000000     2.326000000     4.064000000
H     4.119000000     3.072000000     4.852000000
C     4.712000000     2.516000000     2.813000000
O     5.226000000     3.785000000     2.484000000
C     5.453000000     4.232000000     1.196000000
C     4.367000000     4.931000000     0.592000000
H     3.485000000     5.158000000     1.186000000
C     6.669000000     4.082000000     0.607000000
H     7.406000000     3.444000000     1.088000000
C     6.900000000     4.558000000    -0.677000000
H     7.798000000     4.343000000    -1.251000000
C     5.846000000     5.262000000    -1.355000000
H     5.993000000     5.569000000    -2.387000000
C     4.598000000     5.459000000    -0.705000000
O     3.578000000     6.021000000    -1.384000000
C     2.542000000     5.335000000    -1.953000000
C     1.287000000     5.919000000    -2.108000000
H     1.082000000     6.898000000    -1.683000000
C     0.241000000     5.226000000    -2.704000000
O    -0.963000000     5.937000000    -2.867000000
C    -2.155000000     5.425000000    -3.333000000
C    -3.189000000     5.055000000    -2.548000000
H    -3.080000000     5.154000000    -1.472000000
C    -2.399000000     5.414000000    -4.731000000
H    -1.585000000     5.738000000    -5.375000000
C    -3.510000000     4.762000000    -5.216000000
H    -3.680000000     4.604000000    -6.278000000
C    -4.560000000     4.352000000    -4.336000000
H    -5.425000000     3.831000000    -4.739000000
C    -4.384000000     4.473000000    -2.956000000
O    -5.323000000     4.055000000    -1.969000000
C    -5.353000000     2.735000000    -1.572000000
C    -6.381000000     2.316000000    -0.727000000
H    -7.074000000     3.064000000    -0.349000000
C    -6.439000000     0.950000000    -0.365000000
O    -7.342000000     0.604000000     0.638000000
C    -6.997000000    -0.337000000     1.585000000
C    -7.502000000    -1.627000000     1.420000000
H    -8.196000000    -1.760000000     0.594000000
C    -7.098000000    -2.696000000     2.236000000
H    -7.583000000    -3.658000000     2.094000000
C    -6.091000000    -2.456000000     3.168000000
H    -5.848000000    -3.235000000     3.886000000
C    -5.570000000    -1.183000000     3.335000000
C    -5.939000000    -0.143000000     2.542000000
H    -5.382000000     0.786000000     2.448000000
C    -2.131000000     1.942000000     1.110000000
H    -3.035000000     2.530000000     0.977000000
C    -1.369000000     1.503000000     0.025000000
H    -1.744000000     1.740000000    -0.967000000
C    -0.359000000     0.571000000     0.173000000
H     0.024000000     0.097000000    -0.792000000
C     0.016000000     0.175000000     1.415000000
H     0.783000000    -0.587000000     1.529000000
C    -0.611000000     0.674000000     2.592000000
H    -0.263000000     0.489000000     3.605000000
C    -1.749000000     1.503000000     2.410000000
C    -2.373000000     2.068000000     3.639000000
O    -1.832000000     1.924000000     4.728000000
O    -3.410000000     2.703000000     3.691000000
O    -0.094000000     3.958000000     4.706000000
H    -0.917000000     4.431000000     4.830000000
H    -0.248000000     3.102000000     5.106000000
O    -0.798000000     7.555000000     4.279000000
H    -1.409000000     8.288000000     4.203000000
H    -1.107000000     6.917000000     3.635000000
O    -4.250000000     2.056000000     6.274000000
H    -4.529000000     2.936000000     6.020000000
H    -3.443000000     1.910000000     5.780000000
O     2.115000000     6.447000000     3.196000000
H     1.730000000     5.585000000     3.041000000
H     1.436000000     7.065000000     2.925000000
O    -0.889000000     5.831000000     1.714000000
H    -1.630000000     5.347000000     2.079000000
H    -0.312000000     5.154000000     1.360000000
O    -2.570000000     4.969000000     4.575000000
H    -2.839000000     4.135000000     4.189000000
H    -3.247000000     5.588000000     4.303000000
O    -1.309000000     2.090000000     7.265000000
H    -1.481000000     1.960000000     6.332000000
H    -2.039000000     2.628000000     7.571000000
O    -5.854000000     5.429000000     0.741000000
H    -5.279000000     6.169000000     0.546000000
H    -5.774000000     4.856000000    -0.022000000
O    -0.116000000     4.634000000     8.148000000
H    -1.030000000     4.848000000     8.335000000
H    -0.107000000     3.681000000     8.054000000
O    -0.133000000     7.093000000     6.931000000
H    -0.015000000     6.223000000     7.312000000
H    -0.334000000     6.926000000     6.010000000
O    -4.575000000     6.719000000     6.622000000
H    -5.492000000     6.456000000     6.543000000
H    -4.230000000     6.654000000     5.732000000
O     0.914000000     3.814000000     2.290000000
H     0.965000000     2.950000000     1.882000000
H     0.557000000     3.647000000     3.163000000
O    -1.077000000     0.579000000     9.536000000
H    -1.659000000     1.243000000     9.907000000
H    -1.033000000     0.794000000     8.604000000
O    -2.848000000     4.735000000     8.450000000
H    -2.986000000     5.562000000     8.911000000
H    -3.054000000     4.933000000     7.537000000
O    -7.766000000     3.392000000     2.626000000
H    -7.087000000     2.993000000     3.169000000
H    -7.374000000     4.208000000     2.314000000
O    -6.321000000     4.197000000     8.319000000
H    -5.389000000     4.321000000     8.137000000
H    -6.764000000     4.788000000     7.711000000
O    -4.512000000     6.627000000     3.856000000
H    -4.476000000     7.197000000     3.088000000
H    -5.447000000     6.478000000     3.999000000
O    -5.921000000     3.240000000     4.450000000
H    -5.776000000     2.404000000     4.892000000
H    -5.095000000     3.420000000     4.002000000
O    -6.038000000     0.166000000     7.177000000
H    -5.793000000    -0.530000000     6.568000000
H    -5.238000000     0.680000000     7.288000000
