215
-1466.00293
C     4.266000000     1.960000000     1.396000000
H     4.584000000     1.880000000     0.360000000
C     3.823000000     0.773000000     2.006000000
C     3.472000000     0.812000000     3.352000000
H     3.059000000    -0.035000000     3.895000000
C     3.743000000    -0.449000000     1.189000000
O     4.744000000    -0.633000000     0.114000000
H     2.758000000    -0.560000000     0.711000000
O     3.786000000    -1.629000000     2.029000000
C     3.046000000    -2.739000000     1.765000000
C     1.962000000    -2.914000000     2.675000000
H     1.943000000    -2.280000000     3.558000000
C     1.005000000    -3.841000000     2.341000000
O    -0.087000000    -3.881000000     3.216000000
C     1.101000000    -4.660000000     1.172000000
C    -0.008000000    -5.510000000     0.675000000
H     0.444000000    -6.272000000     0.037000000
C    -1.165000000    -4.834000000     0.034000000
C    -1.246000000    -4.861000000    -1.391000000
H    -0.570000000    -5.415000000    -2.038000000
H    -0.379000000    -6.194000000     1.441000000
C     2.258000000    -4.512000000     0.362000000
H     2.379000000    -5.096000000    -0.547000000
C     3.240000000    -3.564000000     0.646000000
C     4.355000000    -3.417000000    -0.343000000
H     4.676000000    -4.357000000    -0.795000000
H     5.269000000    -3.112000000     0.169000000
C     4.075000000    -2.389000000    -1.409000000
C     3.384000000    -2.758000000    -2.636000000
H     3.313000000    -3.808000000    -2.907000000
C     4.214000000    -1.030000000    -1.102000000
C     3.824000000    -0.074000000    -1.959000000
H     3.820000000     0.955000000    -1.608000000
C     3.273000000    -0.413000000    -3.192000000
O     2.818000000     0.661000000    -3.947000000
C     1.457000000     1.086000000    -3.754000000
C     1.494000000     2.548000000    -3.627000000
C     0.330000000     3.240000000    -3.910000000
H    -0.573000000     2.746000000    -4.261000000
C     2.610000000     3.231000000    -3.070000000
H     3.540000000     2.676000000    -2.976000000
O     0.785000000     0.641000000    -4.846000000
H     1.044000000     0.759000000    -2.789000000
C     2.979000000    -1.774000000    -3.487000000
C     2.214000000    -2.053000000    -4.771000000
H     2.389000000    -3.067000000    -5.137000000
H     2.596000000    -1.427000000    -5.580000000
C     0.724000000    -1.771000000    -4.549000000
C    -0.132000000    -2.898000000    -4.375000000
H     0.244000000    -3.910000000    -4.506000000
C     0.092000000    -0.509000000    -4.637000000
C    -1.269000000    -0.408000000    -4.357000000
H    -1.720000000     0.581000000    -4.330000000
C    -2.067000000    -1.510000000    -4.049000000
O    -3.411000000    -1.230000000    -3.675000000
C    -3.654000000    -1.259000000    -2.215000000
C    -4.485000000    -0.102000000    -1.730000000
C    -4.432000000     1.064000000    -2.417000000
H    -3.929000000     1.097000000    -3.380000000
C    -5.288000000    -0.065000000    -0.594000000
H    -5.350000000    -0.928000000     0.063000000
O    -4.112000000    -2.600000000    -1.850000000
H    -2.615000000    -1.221000000    -1.856000000
C    -1.511000000    -2.774000000    -4.039000000
C    -2.323000000    -3.999000000    -3.539000000
H    -2.011000000    -4.922000000    -4.033000000
H    -3.381000000    -3.819000000    -3.744000000
C    -2.201000000    -4.072000000    -2.049000000
C    -3.166000000    -3.423000000    -1.297000000
C    -3.168000000    -3.490000000     0.137000000
H    -3.905000000    -2.948000000     0.723000000
C    -2.141000000    -4.145000000     0.777000000
O    -2.104000000    -3.963000000     2.156000000
C    -1.106000000    -3.069000000     2.680000000
H    -0.728000000    -2.416000000     1.879000000
C    -1.619000000    -2.168000000     3.865000000
C    -0.853000000    -1.914000000     5.029000000
H     0.129000000    -2.376000000     5.082000000
C    -2.748000000    -1.380000000     3.666000000
H    -3.362000000    -1.480000000     2.774000000
C    -3.110000000    -0.442000000     4.662000000
O    -4.321000000     0.195000000     4.722000000
C    -2.382000000    -0.268000000     5.800000000
H    -2.754000000     0.349000000     6.615000000
C    -1.211000000    -0.969000000     5.970000000
O    -0.433000000    -0.697000000     7.005000000
C     0.915000000    -0.345000000     6.937000000
C     1.345000000     0.538000000     5.972000000
H     0.810000000     0.785000000     5.059000000
C     1.731000000    -0.649000000     8.053000000
H     1.377000000    -1.250000000     8.886000000
C     3.072000000    -0.153000000     8.158000000
H     3.699000000    -0.358000000     9.022000000
C     3.443000000     0.732000000     7.188000000
H     4.415000000     1.183000000     7.372000000
C     2.591000000     1.072000000     6.157000000
O     3.008000000     2.095000000     5.339000000
C     3.464000000     2.038000000     4.051000000
C     3.882000000     3.221000000     3.479000000
H     3.731000000     4.229000000     3.857000000
C     4.431000000     3.152000000     2.166000000
O     4.964000000     4.324000000     1.717000000
C     5.282000000     4.393000000     0.412000000
C     4.317000000     4.773000000    -0.483000000
H     3.305000000     4.994000000    -0.154000000
C     6.603000000     4.078000000     0.042000000
H     7.325000000     3.815000000     0.810000000
C     6.994000000     4.221000000    -1.309000000
H     7.962000000     3.916000000    -1.697000000
C     6.048000000     4.624000000    -2.273000000
H     6.207000000     4.698000000    -3.346000000
C     4.707000000     4.891000000    -1.813000000
O     3.782000000     5.231000000    -2.772000000
C     2.603000000     4.630000000    -3.025000000
C     1.463000000     5.304000000    -3.289000000
H     1.500000000     6.390000000    -3.265000000
C     0.320000000     4.541000000    -3.712000000
O    -0.742000000     5.305000000    -4.170000000
C    -2.021000000     4.818000000    -4.375000000
C    -2.719000000     4.162000000    -3.329000000
H    -2.281000000     4.281000000    -2.341000000
C    -2.578000000     4.908000000    -5.637000000
H    -1.933000000     5.386000000    -6.370000000
C    -3.781000000     4.309000000    -5.936000000
H    -4.167000000     4.563000000    -6.920000000
C    -4.451000000     3.693000000    -4.896000000
H    -5.469000000     3.413000000    -5.155000000
C    -3.973000000     3.635000000    -3.605000000
O    -4.916000000     3.388000000    -2.615000000
C    -5.027000000     2.242000000    -1.950000000
C    -5.858000000     2.204000000    -0.866000000
H    -6.319000000     3.115000000    -0.492000000
C    -5.994000000     1.012000000    -0.185000000
O    -6.903000000     0.934000000     0.861000000
C    -6.690000000     0.205000000     2.008000000
C    -7.592000000    -0.863000000     2.428000000
H    -8.431000000    -1.135000000     1.793000000
C    -7.398000000    -1.555000000     3.688000000
H    -8.059000000    -2.274000000     4.166000000
C    -6.307000000    -1.143000000     4.441000000
H    -6.131000000    -1.675000000     5.373000000
C    -5.394000000    -0.191000000     3.987000000
C    -5.581000000     0.418000000     2.754000000
H    -4.834000000     1.119000000     2.390000000
C    -1.248000000     1.806000000    -0.028000000
H    -1.832000000     2.690000000    -0.271000000
C    -0.983000000     0.843000000    -0.971000000
H    -1.437000000     0.920000000    -1.956000000
C    -0.223000000    -0.309000000    -0.769000000
H    -0.157000000    -1.072000000    -1.603000000
C     0.259000000    -0.524000000     0.517000000
H     0.844000000    -1.416000000     0.725000000
C    -0.030000000     0.445000000     1.524000000
H     0.182000000     0.304000000     2.581000000
C    -0.760000000     1.627000000     1.225000000
C    -0.936000000     2.697000000     2.322000000
O    -0.537000000     2.546000000     3.427000000
O    -1.655000000     3.668000000     2.083000000
O     0.940000000     4.182000000     4.793000000
H     1.700000000     3.802000000     5.233000000
H     0.594000000     3.469000000     4.255000000
O     0.768000000     5.871000000     7.007000000
H     1.537000000     6.259000000     6.591000000
H     0.410000000     5.279000000     6.345000000
O    -1.936000000     2.608000000     5.517000000
H    -2.820000000     2.366000000     5.242000000
H    -1.388000000     2.421000000     4.755000000
O     1.226000000     6.226000000     2.936000000
H     0.396000000     6.036000000     2.501000000
H     1.395000000     5.454000000     3.478000000
O    -5.574000000     5.714000000     5.514000000
H    -6.140000000     6.486000000     5.528000000
H    -4.686000000     6.070000000     5.463000000
O    -1.268000000     6.252000000     1.776000000
H    -1.256000000     5.322000000     2.002000000
H    -2.196000000     6.460000000     1.669000000
O     0.634000000     8.375000000     4.653000000
H     0.553000000     7.796000000     3.896000000
H    -0.023000000     9.055000000     4.506000000
O    -0.568000000     8.837000000     2.123000000
H    -1.083000000     8.149000000     1.702000000
H     0.307000000     8.747000000     1.746000000
O    -2.308000000     5.247000000     4.858000000
H    -2.459000000     4.346000000     5.143000000
H    -2.002000000     5.165000000     3.955000000
O     3.667000000     7.095000000     2.095000000
H     4.169000000     6.360000000     1.745000000
H     2.855000000     6.701000000     2.414000000
O    -0.991000000     2.670000000     7.992000000
H    -0.993000000     2.345000000     7.091000000
H    -1.538000000     3.455000000     7.964000000
O    -3.823000000     6.673000000     1.199000000
H    -4.546000000     7.136000000     1.621000000
H    -3.979000000     6.790000000     0.261000000
O     2.253000000     7.856000000    -0.137000000
H     1.687000000     7.085000000    -0.179000000
H     2.787000000     7.718000000     0.645000000
O     0.507000000     5.640000000    -0.139000000
H     0.474000000     4.725000000    -0.419000000
H    -0.298000000     5.766000000     0.364000000
O    -2.472000000     4.847000000     7.936000000
H    -2.250000000     5.583000000     8.506000000
H    -2.258000000     5.153000000     7.055000000
O    -7.961000000     3.060000000     3.787000000
H    -8.377000000     3.345000000     2.973000000
H    -7.155000000     3.574000000     3.837000000
O    -4.907000000     3.256000000     4.698000000
H    -4.802000000     3.319000000     3.748000000
H    -4.911000000     4.164000000     4.999000000
O    -3.064000000     7.448000000     6.415000000
H    -2.629000000     6.779000000     5.887000000
H    -3.005000000     8.245000000     5.888000000
O    -4.354000000     3.618000000     2.146000000
H    -4.269000000     3.847000000     1.220000000
H    -3.470000000     3.717000000     2.499000000
