215
-1447.59513
C     4.768000000     1.196000000     1.699000000
H     5.140000000     1.329000000     0.687000000
C     4.237000000    -0.017000000     2.168000000
C     3.710000000    -0.070000000     3.463000000
H     3.425000000    -1.058000000     3.814000000
C     3.994000000    -1.191000000     1.189000000
O     4.977000000    -1.324000000     0.161000000
H     3.086000000    -0.932000000     0.624000000
O     3.808000000    -2.482000000     1.878000000
C     2.850000000    -3.243000000     1.428000000
C     1.646000000    -3.194000000     2.170000000
H     1.567000000    -2.829000000     3.191000000
C     0.517000000    -3.815000000     1.719000000
O    -0.549000000    -3.921000000     2.590000000
C     0.487000000    -4.541000000     0.508000000
C    -0.686000000    -5.359000000     0.046000000
H    -0.287000000    -6.076000000    -0.673000000
C    -1.723000000    -4.513000000    -0.603000000
C    -1.642000000    -4.250000000    -1.990000000
H    -0.898000000    -4.790000000    -2.569000000
H    -1.123000000    -5.916000000     0.878000000
C     1.661000000    -4.602000000    -0.237000000
H     1.605000000    -5.101000000    -1.202000000
C     2.812000000    -3.846000000     0.166000000
C     3.980000000    -3.807000000    -0.776000000
H     3.765000000    -4.642000000    -1.447000000
H     4.976000000    -3.972000000    -0.358000000
C     3.968000000    -2.507000000    -1.609000000
C     3.331000000    -2.462000000    -2.852000000
H     2.865000000    -3.316000000    -3.337000000
C     4.499000000    -1.348000000    -1.074000000
C     4.452000000    -0.131000000    -1.796000000
H     4.811000000     0.787000000    -1.337000000
C     3.737000000    -0.073000000    -2.999000000
O     3.459000000     1.138000000    -3.493000000
C     2.139000000     1.600000000    -3.295000000
C     2.074000000     3.103000000    -2.801000000
C     0.833000000     3.697000000    -2.712000000
H    -0.047000000     3.098000000    -2.933000000
C     3.273000000     3.772000000    -2.560000000
H     4.242000000     3.313000000    -2.742000000
O     1.229000000     1.439000000    -4.376000000
H     1.702000000     1.061000000    -2.442000000
C     3.159000000    -1.211000000    -3.554000000
C     2.315000000    -1.251000000    -4.812000000
H     2.437000000    -2.208000000    -5.324000000
H     2.759000000    -0.534000000    -5.506000000
C     0.832000000    -0.999000000    -4.512000000
C    -0.073000000    -2.096000000    -4.426000000
H     0.358000000    -3.093000000    -4.408000000
C     0.397000000     0.287000000    -4.301000000
C    -1.009000000     0.545000000    -4.124000000
H    -1.434000000     1.545000000    -4.086000000
C    -1.887000000    -0.553000000    -4.063000000
O    -3.190000000    -0.277000000    -3.851000000
C    -3.595000000    -0.516000000    -2.477000000
C    -4.598000000     0.597000000    -1.985000000
C    -4.398000000     1.952000000    -2.287000000
H    -3.751000000     2.283000000    -3.095000000
C    -5.500000000     0.319000000    -0.952000000
H    -5.796000000    -0.683000000    -0.651000000
O    -4.284000000    -1.833000000    -2.378000000
H    -2.738000000    -0.469000000    -1.789000000
C    -1.453000000    -1.900000000    -4.226000000
C    -2.380000000    -3.113000000    -4.071000000
H    -1.995000000    -3.992000000    -4.593000000
H    -3.374000000    -3.020000000    -4.514000000
C    -2.576000000    -3.507000000    -2.638000000
C    -3.592000000    -2.868000000    -1.854000000
C    -3.679000000    -3.081000000    -0.451000000
H    -4.394000000    -2.513000000     0.139000000
C    -2.714000000    -3.909000000     0.168000000
O    -2.723000000    -3.899000000     1.555000000
C    -1.738000000    -3.114000000     2.329000000
H    -1.368000000    -2.283000000     1.711000000
C    -2.256000000    -2.409000000     3.581000000
C    -1.381000000    -2.232000000     4.659000000
H    -0.367000000    -2.623000000     4.677000000
C    -3.600000000    -2.121000000     3.726000000
H    -4.259000000    -2.466000000     2.933000000
C    -4.002000000    -1.372000000     4.778000000
O    -5.270000000    -0.862000000     4.795000000
C    -3.082000000    -0.953000000     5.722000000
H    -3.467000000    -0.291000000     6.494000000
C    -1.753000000    -1.420000000     5.712000000
O    -0.913000000    -1.002000000     6.713000000
C     0.404000000    -1.133000000     6.634000000
C     1.167000000    -0.045000000     6.214000000
H     0.759000000     0.891000000     5.841000000
C     1.016000000    -2.325000000     7.049000000
H     0.385000000    -3.125000000     7.428000000
C     2.408000000    -2.465000000     6.898000000
H     2.917000000    -3.350000000     7.271000000
C     3.205000000    -1.417000000     6.435000000
H     4.290000000    -1.374000000     6.391000000
C     2.545000000    -0.193000000     6.116000000
O     3.245000000     0.941000000     5.631000000
C     3.834000000     1.013000000     4.363000000
C     4.328000000     2.270000000     3.903000000
H     4.310000000     3.172000000     4.510000000
C     4.868000000     2.307000000     2.550000000
O     5.482000000     3.514000000     2.205000000
C     5.938000000     3.774000000     0.932000000
C     4.945000000     4.301000000     0.093000000
H     3.921000000     4.329000000     0.457000000
C     7.251000000     3.851000000     0.549000000
H     8.038000000     3.582000000     1.248000000
C     7.647000000     4.344000000    -0.747000000
H     8.678000000     4.466000000    -1.071000000
C     6.631000000     5.040000000    -1.472000000
H     6.840000000     5.489000000    -2.439000000
C     5.286000000     5.068000000    -1.032000000
O     4.359000000     5.759000000    -1.835000000
C     3.243000000     5.115000000    -2.214000000
C     2.049000000     5.772000000    -2.235000000
H     1.919000000     6.840000000    -2.079000000
C     0.841000000     5.052000000    -2.497000000
O    -0.403000000     5.668000000    -2.411000000
C    -1.562000000     5.302000000    -3.085000000
C    -2.650000000     5.166000000    -2.277000000
H    -2.508000000     5.261000000    -1.203000000
C    -1.754000000     5.345000000    -4.435000000
H    -0.929000000     5.608000000    -5.091000000
C    -2.989000000     5.073000000    -4.988000000
H    -3.095000000     5.136000000    -6.068000000
C    -4.054000000     4.676000000    -4.143000000
H    -5.092000000     4.469000000    -4.389000000
C    -3.878000000     4.744000000    -2.763000000
O    -4.859000000     4.297000000    -1.952000000
C    -5.016000000     2.987000000    -1.580000000
C    -5.823000000     2.712000000    -0.570000000
H    -6.262000000     3.538000000    -0.017000000
C    -6.146000000     1.395000000    -0.244000000
O    -6.875000000     1.269000000     0.861000000
C    -6.749000000     0.122000000     1.567000000
C    -7.605000000    -0.970000000     1.356000000
H    -8.249000000    -1.032000000     0.483000000
C    -7.606000000    -2.046000000     2.207000000
H    -8.230000000    -2.917000000     2.023000000
C    -6.781000000    -2.003000000     3.345000000
H    -6.782000000    -2.800000000     4.084000000
C    -6.011000000    -0.833000000     3.640000000
C    -5.929000000     0.192000000     2.727000000
H    -5.291000000     1.063000000     2.859000000
C    -2.137000000     1.780000000     1.726000000
H    -2.987000000     2.454000000     1.653000000
C    -1.689000000     1.315000000     0.561000000
H    -2.159000000     1.565000000    -0.386000000
C    -0.515000000     0.652000000     0.476000000
H    -0.136000000     0.213000000    -0.392000000
C     0.179000000     0.392000000     1.660000000
H     1.109000000    -0.140000000     1.482000000
C    -0.322000000     0.756000000     2.904000000
H     0.257000000     0.538000000     3.798000000
C    -1.424000000     1.626000000     2.932000000
C    -1.940000000     2.261000000     4.201000000
O    -1.223000000     2.546000000     5.163000000
O    -3.119000000     2.606000000     4.231000000
O     0.749000000     4.100000000     4.328000000
H     0.199000000     3.380000000     4.638000000
H     0.182000000     4.870000000     4.371000000
O     0.147000000     6.670000000     4.134000000
H    -0.589000000     7.254000000     4.316000000
H     0.913000000     7.244000000     4.131000000
O    -1.675000000     6.147000000     1.689000000
H    -1.229000000     6.992000000     1.744000000
H    -0.996000000     5.535000000     1.407000000
O    -4.555000000     2.831000000     6.403000000
H    -4.639000000     3.762000000     6.606000000
H    -4.154000000     2.810000000     5.534000000
O     1.396000000     6.061000000     0.569000000
H     2.166000000     6.291000000     1.090000000
H     1.163000000     5.180000000     0.863000000
O    -2.351000000     4.772000000     6.308000000
H    -1.972000000     3.954000000     5.986000000
H    -2.305000000     5.367000000     5.560000000
O    -3.035000000     5.002000000     9.085000000
H    -3.971000000     5.202000000     9.090000000
H    -2.812000000     4.922000000     8.158000000
O    -2.169000000     1.511000000     7.476000000
H    -1.611000000     1.669000000     6.714000000
H    -2.959000000     2.024000000     7.305000000
O    -4.111000000     5.215000000     1.098000000
H    -3.195000000     5.462000000     1.223000000
H    -4.605000000     6.000000000     1.334000000
O     0.439000000     3.160000000     7.974000000
H     0.796000000     3.971000000     7.610000000
H    -0.194000000     2.863000000     7.320000000
O     3.161000000     5.660000000     4.829000000
H     2.344000000     5.166000000     4.884000000
H     3.522000000     5.433000000     3.972000000
O     0.470000000     3.661000000     1.227000000
H    -0.206000000     3.003000000     1.065000000
H     0.643000000     3.600000000     2.167000000
O    -1.224000000     0.506000000     9.909000000
H    -1.314000000     1.292000000    10.448000000
H    -1.441000000     0.798000000     9.023000000
O    -0.134000000     6.717000000     7.076000000
H    -0.616000000     6.209000000     6.423000000
H     0.685000000     6.235000000     7.197000000
O    -7.970000000     3.240000000     3.109000000
H    -7.021000000     3.290000000     2.992000000
H    -8.162000000     2.302000000     3.106000000
O    -5.657000000     5.512000000     7.059000000
H    -6.263000000     6.074000000     7.541000000
H    -6.028000000     5.458000000     6.178000000
O    -2.955000000     6.327000000     4.276000000
H    -2.577000000     5.942000000     3.485000000
H    -2.888000000     7.272000000     4.138000000
O    -5.360000000     3.606000000     2.757000000
H    -4.969000000     4.203000000     2.119000000
H    -4.611000000     3.210000000     3.204000000
O    -5.144000000     1.119000000     8.639000000
H    -4.673000000     0.287000000     8.586000000
H    -4.797000000     1.637000000     7.913000000
