215
-1453.36259
C     4.552000000     0.615000000     2.215000000
H     4.463000000     0.856000000     1.159000000
C     4.154000000    -0.660000000     2.629000000
C     4.081000000    -1.003000000     3.984000000
H     3.629000000    -1.956000000     4.247000000
C     3.637000000    -1.625000000     1.553000000
O     4.597000000    -1.861000000     0.539000000
H     2.719000000    -1.203000000     1.119000000
O     3.400000000    -2.897000000     2.167000000
C     2.340000000    -3.695000000     1.803000000
C     1.250000000    -3.592000000     2.622000000
H     1.313000000    -3.091000000     3.584000000
C     0.026000000    -4.140000000     2.245000000
O    -1.011000000    -3.820000000     3.085000000
C    -0.160000000    -4.788000000     1.048000000
C    -1.506000000    -5.376000000     0.718000000
H    -1.348000000    -6.261000000     0.098000000
C    -2.259000000    -4.303000000    -0.013000000
C    -2.064000000    -4.237000000    -1.382000000
H    -1.546000000    -5.084000000    -1.824000000
H    -2.043000000    -5.708000000     1.609000000
C     0.949000000    -4.905000000     0.192000000
H     0.740000000    -5.397000000    -0.754000000
C     2.195000000    -4.406000000     0.622000000
C     3.459000000    -4.419000000    -0.299000000
H     3.503000000    -5.383000000    -0.809000000
H     4.377000000    -4.357000000     0.289000000
C     3.592000000    -3.200000000    -1.244000000
C     3.067000000    -3.285000000    -2.519000000
H     2.638000000    -4.196000000    -2.929000000
C     4.130000000    -2.014000000    -0.764000000
C     4.071000000    -0.824000000    -1.481000000
H     4.568000000     0.055000000    -1.077000000
C     3.387000000    -0.854000000    -2.731000000
O     3.274000000     0.347000000    -3.392000000
C     2.023000000     0.901000000    -3.416000000
C     1.998000000     2.404000000    -3.235000000
C     1.158000000     3.264000000    -4.013000000
H     0.573000000     2.877000000    -4.844000000
C     2.599000000     2.873000000    -2.067000000
H     3.152000000     2.191000000    -1.427000000
O     1.426000000     0.482000000    -4.599000000
H     1.456000000     0.485000000    -2.570000000
C     2.912000000    -2.093000000    -3.250000000
C     2.287000000    -2.195000000    -4.615000000
H     2.548000000    -3.201000000    -4.952000000
H     2.754000000    -1.462000000    -5.276000000
C     0.795000000    -1.783000000    -4.426000000
C    -0.202000000    -2.797000000    -4.253000000
H     0.036000000    -3.840000000    -4.061000000
C     0.492000000    -0.434000000    -4.558000000
C    -0.799000000     0.024000000    -4.485000000
H    -1.022000000     1.088000000    -4.477000000
C    -1.756000000    -0.921000000    -4.227000000
O    -2.975000000    -0.452000000    -3.914000000
C    -3.241000000    -0.289000000    -2.556000000
C    -3.913000000     1.106000000    -2.272000000
C    -3.698000000     2.149000000    -3.146000000
H    -3.112000000     1.981000000    -4.046000000
C    -4.520000000     1.348000000    -1.096000000
H    -4.611000000     0.557000000    -0.356000000
O    -4.129000000    -1.288000000    -2.061000000
H    -2.249000000    -0.325000000    -2.082000000
C    -1.459000000    -2.283000000    -4.054000000
C    -2.548000000    -3.227000000    -3.539000000
H    -2.260000000    -4.226000000    -3.871000000
H    -3.525000000    -3.028000000    -3.986000000
C    -2.749000000    -3.213000000    -2.038000000
C    -3.596000000    -2.321000000    -1.381000000
C    -3.798000000    -2.381000000    -0.003000000
H    -4.450000000    -1.666000000     0.492000000
C    -3.068000000    -3.395000000     0.688000000
O    -3.034000000    -3.276000000     2.073000000
C    -1.872000000    -2.674000000     2.669000000
H    -1.264000000    -2.161000000     1.909000000
C    -2.243000000    -1.663000000     3.728000000
C    -1.238000000    -1.172000000     4.608000000
H    -0.243000000    -1.610000000     4.615000000
C    -3.530000000    -1.086000000     3.787000000
H    -4.424000000    -1.407000000     3.258000000
C    -3.867000000    -0.059000000     4.642000000
O    -5.055000000     0.532000000     4.656000000
C    -2.827000000     0.512000000     5.424000000
H    -2.939000000     1.375000000     6.075000000
C    -1.524000000    -0.023000000     5.384000000
O    -0.484000000     0.562000000     6.146000000
C     0.625000000    -0.115000000     6.580000000
C     1.915000000     0.275000000     6.203000000
H     2.055000000     1.018000000     5.423000000
C     0.500000000    -1.143000000     7.462000000
H    -0.517000000    -1.404000000     7.741000000
C     1.604000000    -1.971000000     7.849000000
H     1.412000000    -2.850000000     8.459000000
C     2.923000000    -1.575000000     7.456000000
H     3.821000000    -2.164000000     7.621000000
C     3.041000000    -0.479000000     6.671000000
O     4.375000000    -0.294000000     6.269000000
C     4.573000000    -0.086000000     4.946000000
C     5.163000000     1.027000000     4.550000000
H     5.654000000     1.670000000     5.275000000
C     5.181000000     1.452000000     3.180000000
O     5.691000000     2.644000000     2.811000000
C     5.630000000     3.205000000     1.561000000
C     4.415000000     3.603000000     1.109000000
H     3.575000000     3.502000000     1.792000000
C     6.719000000     3.333000000     0.738000000
H     7.710000000     3.078000000     1.107000000
C     6.637000000     3.965000000    -0.459000000
H     7.577000000     4.222000000    -0.942000000
C     5.413000000     4.210000000    -1.046000000
H     5.296000000     4.626000000    -2.044000000
C     4.281000000     4.156000000    -0.214000000
O     3.085000000     4.735000000    -0.572000000
C     2.416000000     4.213000000    -1.631000000
C     1.584000000     5.006000000    -2.373000000
H     1.446000000     6.055000000    -2.123000000
C     0.999000000     4.564000000    -3.530000000
O     0.318000000     5.427000000    -4.289000000
C    -0.874000000     5.107000000    -4.917000000
C    -1.980000000     4.721000000    -4.104000000
H    -1.838000000     4.629000000    -3.030000000
C    -1.072000000     5.378000000    -6.293000000
H    -0.189000000     5.683000000    -6.849000000
C    -2.300000000     5.157000000    -6.914000000
H    -2.397000000     5.123000000    -7.997000000
C    -3.377000000     4.770000000    -6.121000000
H    -4.294000000     4.527000000    -6.652000000
C    -3.239000000     4.700000000    -4.712000000
O    -4.298000000     4.331000000    -3.940000000
C    -4.299000000     3.420000000    -2.974000000
C    -4.897000000     3.651000000    -1.741000000
H    -5.201000000     4.675000000    -1.537000000
C    -4.968000000     2.657000000    -0.768000000
O    -5.526000000     2.884000000     0.515000000
C    -5.953000000     1.935000000     1.354000000
C    -6.945000000     1.038000000     0.980000000
H    -7.357000000     0.984000000    -0.025000000
C    -7.303000000    -0.039000000     1.822000000
H    -8.042000000    -0.758000000     1.477000000
C    -6.663000000    -0.202000000     3.051000000
H    -6.809000000    -1.119000000     3.614000000
C    -5.725000000     0.712000000     3.459000000
C    -5.315000000     1.718000000     2.585000000
H    -4.432000000     2.317000000     2.794000000
C    -1.702000000     1.080000000     1.531000000
H    -2.768000000     1.186000000     1.719000000
C    -1.304000000     0.197000000     0.574000000
H    -2.033000000    -0.398000000     0.030000000
C     0.008000000     0.117000000     0.153000000
H     0.239000000    -0.536000000    -0.736000000
C     0.994000000     0.874000000     0.754000000
H     2.021000000     0.824000000     0.400000000
C     0.593000000     1.749000000     1.817000000
H     1.366000000     2.365000000     2.269000000
C    -0.753000000     1.875000000     2.209000000
C    -1.076000000     2.915000000     3.272000000
O    -0.150000000     3.505000000     3.843000000
O    -2.202000000     3.235000000     3.586000000
O     0.283000000     5.795000000     2.226000000
H     0.123000000     4.991000000     2.720000000
H     0.272000000     6.488000000     2.886000000
O     1.205000000     7.854000000     3.924000000
H     0.548000000     8.327000000     4.437000000
H     1.300000000     8.370000000     3.123000000
O    -4.228000000     4.917000000     2.728000000
H    -3.585000000     4.262000000     3.000000000
H    -3.749000000     5.745000000     2.749000000
O     2.060000000     6.122000000     6.804000000
H     1.114000000     5.989000000     6.864000000
H     2.366000000     5.410000000     6.242000000
O    -1.052000000     5.066000000    -0.390000000
H    -0.303000000     4.958000000     0.196000000
H    -1.091000000     4.246000000    -0.883000000
O    -0.611000000     5.562000000     7.274000000
H    -0.968000000     6.393000000     7.590000000
H    -1.379000000     5.003000000     7.152000000
O    -2.513000000     4.103000000     6.235000000
H    -2.035000000     3.646000000     5.544000000
H    -3.363000000     3.665000000     6.269000000
O     1.007000000     3.362000000     6.203000000
H     0.555000000     3.387000000     5.360000000
H     0.499000000     3.947000000     6.765000000
O     3.747000000     3.469000000     6.711000000
H     3.762000000     3.505000000     7.667000000
H     2.835000000     3.279000000     6.492000000
O    -6.173000000     3.846000000     4.905000000
H    -5.754000000     4.627000000     4.544000000
H    -7.030000000     3.815000000     4.480000000
O    -3.405000000     7.452000000     2.763000000
H    -2.558000000     7.331000000     3.193000000
H    -3.476000000     8.398000000     2.637000000
O    -0.876000000     2.638000000    -1.462000000
H    -1.539000000     2.197000000    -0.931000000
H    -0.091000000     2.101000000    -1.359000000
O    -4.916000000     2.673000000     7.070000000
H    -5.160000000     2.779000000     6.150000000
H    -5.742000000     2.743000000     7.547000000
O     1.174000000     7.693000000     0.407000000
H     0.794000000     7.049000000     1.005000000
H     0.419000000     8.113000000    -0.004000000
O    -3.854000000     6.630000000     6.495000000
H    -3.372000000     6.306000000     5.735000000
H    -3.195000000     6.698000000     7.186000000
O    -1.647000000     6.134000000     4.609000000
H    -1.721000000     5.237000000     4.284000000
H    -0.966000000     6.090000000     5.280000000
O    -3.547000000     5.852000000     0.106000000
H    -2.882000000     5.165000000     0.072000000
H    -4.018000000     5.689000000     0.923000000
O     1.702000000     2.049000000     8.746000000
H     1.540000000     2.123000000     7.806000000
H     1.418000000     2.890000000     9.105000000
O    -2.956000000     1.305000000     8.652000000
H    -2.186000000     1.842000000     8.841000000
H    -3.469000000     1.830000000     8.038000000
