215
-1469.23570
C     4.653000000     0.804000000     1.876000000
H     4.872000000     1.262000000     0.914000000
C     4.287000000    -0.513000000     2.015000000
C     4.148000000    -1.044000000     3.318000000
H     3.749000000    -2.037000000     3.507000000
C     3.887000000    -1.361000000     0.806000000
O     4.845000000    -1.300000000    -0.322000000
H     2.906000000    -0.956000000     0.516000000
O     3.778000000    -2.829000000     1.110000000
C     2.681000000    -3.562000000     0.735000000
C     1.627000000    -3.816000000     1.644000000
H     1.729000000    -3.520000000     2.685000000
C     0.458000000    -4.443000000     1.246000000
O    -0.622000000    -4.474000000     2.105000000
C     0.400000000    -4.816000000    -0.094000000
C    -0.861000000    -5.381000000    -0.642000000
H    -0.706000000    -6.125000000    -1.427000000
C    -1.926000000    -4.326000000    -0.972000000
C    -1.843000000    -3.755000000    -2.263000000
H    -1.068000000    -3.930000000    -3.004000000
H    -1.303000000    -6.054000000     0.096000000
C     1.435000000    -4.632000000    -1.047000000
H     1.314000000    -4.979000000    -2.070000000
C     2.566000000    -4.024000000    -0.593000000
C     3.800000000    -3.825000000    -1.525000000
H     3.831000000    -4.526000000    -2.361000000
H     4.755000000    -3.962000000    -1.013000000
C     3.829000000    -2.446000000    -2.198000000
C     3.082000000    -2.235000000    -3.380000000
H     2.747000000    -3.148000000    -3.865000000
C     4.268000000    -1.283000000    -1.545000000
C     4.169000000     0.015000000    -2.108000000
H     4.575000000     0.886000000    -1.599000000
C     3.246000000     0.143000000    -3.092000000
O     2.983000000     1.462000000    -3.484000000
C     1.647000000     2.079000000    -3.296000000
C     1.784000000     3.551000000    -2.918000000
C     0.765000000     4.447000000    -3.064000000
H    -0.103000000     4.047000000    -3.581000000
C     2.908000000     4.001000000    -2.188000000
H     3.656000000     3.242000000    -1.972000000
O     0.934000000     1.908000000    -4.501000000
H     1.067000000     1.559000000    -2.519000000
C     2.785000000    -0.979000000    -3.879000000
C     1.861000000    -0.798000000    -5.105000000
H     1.962000000    -1.701000000    -5.710000000
H     2.322000000     0.055000000    -5.609000000
C     0.445000000    -0.447000000    -4.712000000
C    -0.500000000    -1.479000000    -4.660000000
H    -0.096000000    -2.444000000    -4.955000000
C     0.028000000     0.879000000    -4.482000000
C    -1.278000000     1.119000000    -4.069000000
H    -1.617000000     2.120000000    -3.814000000
C    -2.120000000     0.076000000    -3.863000000
O    -3.345000000     0.467000000    -3.338000000
C    -3.620000000     0.128000000    -1.989000000
C    -4.333000000     1.290000000    -1.334000000
C    -4.045000000     2.580000000    -1.741000000
H    -3.342000000     2.687000000    -2.563000000
C    -4.993000000     1.022000000    -0.161000000
H    -5.152000000    -0.013000000     0.130000000
O    -4.331000000    -1.160000000    -1.985000000
H    -2.646000000     0.058000000    -1.481000000
C    -1.795000000    -1.199000000    -4.253000000
C    -2.828000000    -2.275000000    -4.060000000
H    -2.590000000    -3.060000000    -4.780000000
H    -3.844000000    -1.949000000    -4.294000000
C    -2.769000000    -2.809000000    -2.607000000
C    -3.672000000    -2.334000000    -1.709000000
C    -3.581000000    -2.665000000    -0.372000000
H    -4.207000000    -2.140000000     0.345000000
C    -2.843000000    -3.714000000    -0.031000000
O    -2.651000000    -3.991000000     1.289000000
C    -1.578000000    -3.388000000     2.002000000
H    -1.136000000    -2.574000000     1.409000000
C    -2.007000000    -2.859000000     3.341000000
C    -1.081000000    -2.681000000     4.349000000
H    -0.062000000    -2.978000000     4.113000000
C    -3.324000000    -2.463000000     3.530000000
H    -4.061000000    -2.499000000     2.732000000
C    -3.705000000    -1.863000000     4.731000000
O    -5.027000000    -1.477000000     4.916000000
C    -2.734000000    -1.680000000     5.744000000
H    -3.090000000    -1.237000000     6.670000000
C    -1.434000000    -2.081000000     5.519000000
O    -0.454000000    -1.866000000     6.503000000
C     0.914000000    -2.165000000     6.428000000
C     1.967000000    -1.244000000     6.273000000
H     1.832000000    -0.166000000     6.314000000
C     1.220000000    -3.526000000     6.382000000
H     0.344000000    -4.152000000     6.530000000
C     2.546000000    -3.968000000     6.271000000
H     2.739000000    -5.018000000     6.477000000
C     3.637000000    -3.021000000     6.083000000
H     4.697000000    -3.260000000     6.062000000
C     3.282000000    -1.645000000     6.057000000
O     4.266000000    -0.681000000     5.736000000
C     4.446000000    -0.269000000     4.430000000
C     4.831000000     1.071000000     4.316000000
H     5.082000000     1.719000000     5.151000000
C     4.891000000     1.591000000     3.004000000
O     5.072000000     2.925000000     2.841000000
C     5.420000000     3.479000000     1.619000000
C     4.465000000     4.348000000     0.958000000
H     3.513000000     4.535000000     1.449000000
C     6.641000000     3.197000000     1.004000000
H     7.318000000     2.513000000     1.510000000
C     7.007000000     3.829000000    -0.124000000
H     8.000000000     3.646000000    -0.525000000
C     6.091000000     4.618000000    -0.767000000
H     6.341000000     5.065000000    -1.726000000
C     4.837000000     4.881000000    -0.259000000
O     3.944000000     5.752000000    -0.852000000
C     2.971000000     5.312000000    -1.679000000
C     1.973000000     6.206000000    -2.022000000
H     1.973000000     7.200000000    -1.583000000
C     0.846000000     5.791000000    -2.716000000
O    -0.148000000     6.677000000    -3.057000000
C    -1.509000000     6.229000000    -3.156000000
C    -2.321000000     5.878000000    -2.036000000
H    -2.066000000     6.129000000    -1.010000000
C    -1.866000000     5.964000000    -4.459000000
H    -1.266000000     6.296000000    -5.302000000
C    -3.083000000     5.425000000    -4.711000000
H    -3.362000000     5.061000000    -5.697000000
C    -3.973000000     5.184000000    -3.637000000
H    -4.964000000     4.780000000    -3.823000000
C    -3.576000000     5.350000000    -2.305000000
O    -4.396000000     4.957000000    -1.293000000
C    -4.617000000     3.655000000    -0.993000000
C    -5.399000000     3.370000000     0.131000000
H    -5.686000000     4.239000000     0.718000000
C    -5.504000000     2.068000000     0.602000000
O    -6.178000000     1.788000000     1.757000000
C    -6.420000000     0.545000000     2.235000000
C    -7.159000000    -0.419000000     1.557000000
H    -7.596000000    -0.161000000     0.596000000
C    -7.181000000    -1.741000000     2.022000000
H    -7.769000000    -2.506000000     1.522000000
C    -6.520000000    -2.093000000     3.191000000
H    -6.378000000    -3.111000000     3.543000000
C    -5.865000000    -1.095000000     3.893000000
C    -5.728000000     0.233000000     3.428000000
H    -5.077000000     0.923000000     3.958000000
C    -0.958000000     0.692000000     2.537000000
H    -1.862000000     0.705000000     3.141000000
C    -1.071000000     0.175000000     1.237000000
H    -2.026000000    -0.306000000     1.045000000
C     0.088000000     0.141000000     0.390000000
H    -0.062000000    -0.354000000    -0.514000000
C     1.211000000     0.829000000     0.751000000
H     2.048000000     0.932000000     0.065000000
C     1.291000000     1.251000000     2.038000000
H     2.210000000     1.789000000     2.256000000
C     0.266000000     1.268000000     2.954000000
C     0.452000000     1.790000000     4.367000000
O     1.277000000     2.632000000     4.594000000
O    -0.313000000     1.479000000     5.259000000
O     1.092000000     5.006000000     3.428000000
H     1.233000000     4.092000000     3.675000000
H     1.808000000     5.481000000     3.850000000
O     2.887000000     5.788000000     5.415000000
H     2.851000000     6.330000000     6.204000000
H     2.863000000     4.888000000     5.742000000
O    -3.934000000     6.630000000     4.509000000
H    -3.833000000     7.282000000     3.815000000
H    -3.047000000     6.498000000     4.844000000
O    -2.669000000     2.712000000     5.008000000
H    -2.946000000     3.133000000     5.822000000
H    -1.857000000     2.260000000     5.236000000
O    -0.870000000     6.427000000     1.380000000
H    -0.143000000     6.211000000     1.964000000
H    -1.516000000     5.738000000     1.537000000
O     0.586000000     2.955000000     7.392000000
H    -0.304000000     2.828000000     7.722000000
H     0.545000000     2.668000000     6.479000000
O    -1.721000000     5.371000000     7.639000000
H    -1.973000000     4.558000000     8.076000000
H    -1.307000000     5.087000000     6.824000000
O    -0.996000000     0.611000000     7.647000000
H    -0.523000000     0.944000000     6.884000000
H    -1.050000000    -0.334000000     7.501000000
O     3.279000000     3.097000000     6.303000000
H     2.664000000     3.052000000     7.035000000
H     2.767000000     2.823000000     5.542000000
O     5.913000000     3.960000000     5.981000000
H     4.963000000     3.853000000     5.924000000
H     6.266000000     3.243000000     5.456000000
O     4.965000000     6.357000000     3.663000000
H     5.600000000     5.683000000     3.904000000
H     4.217000000     6.198000000     4.240000000
O    -4.373000000     3.808000000     6.962000000
H    -4.304000000     4.718000000     7.251000000
H    -4.515000000     3.311000000     7.768000000
O    -0.459000000     8.112000000     5.064000000
H    -0.361000000     7.163000000     5.137000000
H    -0.942000000     8.241000000     4.248000000
O    -2.450000000     3.581000000     2.249000000
H    -2.643000000     3.093000000     3.049000000
H    -2.604000000     2.954000000     1.543000000
O    -1.843000000     2.795000000     9.028000000
H    -1.767000000     1.947000000     8.591000000
H    -2.127000000     2.582000000     9.917000000
O    -1.468000000     5.233000000     4.435000000
H    -2.140000000     4.747000000     3.956000000
H    -0.643000000     4.834000000     4.159000000
O     1.019000000     4.852000000     9.634000000
H     1.327000000     3.960000000     9.476000000
H     1.502000000     5.139000000    10.409000000
O    -5.335000000     4.074000000     4.169000000
H    -4.521000000     4.322000000     3.730000000
H    -5.069000000     3.856000000     5.062000000
O     1.209000000     0.963000000    10.005000000
H     0.870000000     1.163000000     9.132000000
H     1.764000000     1.711000000    10.224000000
