215
-1439.66026
C     4.998000000     0.657000000     2.317000000
H     5.471000000     0.705000000     1.340000000
C     4.145000000    -0.442000000     2.622000000
C     3.538000000    -0.420000000     3.858000000
H     2.862000000    -1.239000000     4.089000000
C     3.760000000    -1.464000000     1.552000000
O     4.712000000    -1.537000000     0.530000000
H     2.761000000    -1.119000000     1.248000000
O     3.607000000    -2.796000000     2.119000000
C     2.550000000    -3.587000000     1.663000000
C     1.404000000    -3.742000000     2.449000000
H     1.489000000    -3.386000000     3.473000000
C     0.265000000    -4.380000000     1.993000000
O    -0.930000000    -4.273000000     2.742000000
C     0.237000000    -4.789000000     0.617000000
C    -0.989000000    -5.438000000    -0.023000000
H    -0.623000000    -6.177000000    -0.739000000
C    -1.910000000    -4.510000000    -0.747000000
C    -1.569000000    -4.121000000    -2.076000000
H    -0.720000000    -4.562000000    -2.592000000
H    -1.466000000    -6.049000000     0.746000000
C     1.368000000    -4.715000000    -0.105000000
H     1.381000000    -5.113000000    -1.116000000
C     2.563000000    -4.112000000     0.347000000
C     3.746000000    -4.121000000    -0.639000000
H     3.617000000    -4.951000000    -1.338000000
H     4.684000000    -4.298000000    -0.108000000
C     3.852000000    -2.828000000    -1.422000000
C     3.373000000    -2.701000000    -2.726000000
H     2.968000000    -3.608000000    -3.169000000
C     4.317000000    -1.636000000    -0.838000000
C     4.354000000    -0.483000000    -1.513000000
H     4.579000000     0.445000000    -0.994000000
C     3.831000000    -0.444000000    -2.780000000
O     3.694000000     0.884000000    -3.274000000
C     2.269000000     1.393000000    -3.355000000
C     2.248000000     2.861000000    -2.942000000
C     1.497000000     3.807000000    -3.659000000
H     0.904000000     3.456000000    -4.499000000
C     2.991000000     3.305000000    -1.899000000
H     3.651000000     2.619000000    -1.375000000
O     1.617000000     1.124000000    -4.577000000
H     1.756000000     0.764000000    -2.612000000
C     3.286000000    -1.514000000    -3.436000000
C     2.631000000    -1.402000000    -4.789000000
H     2.691000000    -2.359000000    -5.311000000
H     3.179000000    -0.588000000    -5.267000000
C     1.123000000    -1.109000000    -4.717000000
C     0.116000000    -2.090000000    -4.676000000
H     0.464000000    -3.110000000    -4.824000000
C     0.747000000     0.163000000    -4.526000000
C    -0.522000000     0.502000000    -4.251000000
H    -0.821000000     1.544000000    -4.164000000
C    -1.486000000    -0.428000000    -4.153000000
O    -2.755000000    -0.034000000    -3.969000000
C    -3.150000000    -0.189000000    -2.531000000
C    -3.877000000     1.035000000    -2.028000000
C    -3.652000000     2.309000000    -2.575000000
H    -3.005000000     2.446000000    -3.438000000
C    -4.529000000     0.942000000    -0.807000000
H    -4.708000000    -0.017000000    -0.326000000
O    -3.981000000    -1.391000000    -2.495000000
H    -2.217000000    -0.366000000    -1.975000000
C    -1.222000000    -1.750000000    -4.387000000
C    -2.168000000    -2.876000000    -4.192000000
H    -1.901000000    -3.781000000    -4.742000000
H    -3.132000000    -2.655000000    -4.654000000
C    -2.350000000    -3.154000000    -2.667000000
C    -3.355000000    -2.509000000    -1.949000000
C    -3.538000000    -2.735000000    -0.595000000
H    -4.329000000    -2.196000000    -0.081000000
C    -2.894000000    -3.788000000    -0.047000000
O    -3.028000000    -3.998000000     1.343000000
C    -1.986000000    -3.345000000     2.211000000
H    -1.408000000    -2.711000000     1.523000000
C    -2.473000000    -2.521000000     3.368000000
C    -1.606000000    -1.872000000     4.253000000
H    -0.536000000    -2.024000000     4.131000000
C    -3.840000000    -2.474000000     3.511000000
H    -4.517000000    -2.939000000     2.798000000
C    -4.397000000    -1.608000000     4.457000000
O    -5.764000000    -1.345000000     4.470000000
C    -3.567000000    -1.032000000     5.395000000
H    -3.988000000    -0.387000000     6.161000000
C    -2.144000000    -1.165000000     5.315000000
O    -1.424000000    -0.287000000     6.048000000
C    -0.179000000    -0.622000000     6.471000000
C     0.955000000    -0.063000000     5.907000000
H     0.958000000     0.741000000     5.175000000
C    -0.061000000    -1.766000000     7.278000000
H    -0.958000000    -2.361000000     7.428000000
C     1.221000000    -2.229000000     7.605000000
H     1.320000000    -3.213000000     8.056000000
C     2.341000000    -1.516000000     7.270000000
H     3.334000000    -1.873000000     7.529000000
C     2.256000000    -0.425000000     6.440000000
O     3.362000000     0.315000000     6.161000000
C     3.827000000     0.524000000     4.856000000
C     4.536000000     1.676000000     4.490000000
H     4.801000000     2.411000000     5.246000000
C     5.158000000     1.650000000     3.246000000
O     6.055000000     2.702000000     2.941000000
C     6.002000000     3.310000000     1.703000000
C     4.798000000     3.972000000     1.332000000
H     3.947000000     4.027000000     2.006000000
C     7.091000000     3.144000000     0.781000000
H     8.030000000     2.653000000     1.026000000
C     6.919000000     3.699000000    -0.512000000
H     7.685000000     3.519000000    -1.262000000
C     5.777000000     4.326000000    -0.901000000
H     5.560000000     4.604000000    -1.930000000
C     4.690000000     4.450000000     0.018000000
O     3.565000000     5.086000000    -0.375000000
C     2.845000000     4.632000000    -1.451000000
C     2.090000000     5.545000000    -2.149000000
H     1.840000000     6.526000000    -1.753000000
C     1.367000000     5.133000000    -3.248000000
O     0.452000000     6.101000000    -3.896000000
C    -0.840000000     5.766000000    -4.196000000
C    -1.681000000     5.225000000    -3.250000000
H    -1.256000000     5.003000000    -2.275000000
C    -1.335000000     6.040000000    -5.444000000
H    -0.666000000     6.625000000    -6.070000000
C    -2.682000000     5.926000000    -5.725000000
H    -3.201000000     6.261000000    -6.620000000
C    -3.498000000     5.283000000    -4.791000000
H    -4.563000000     5.150000000    -4.963000000
C    -3.017000000     4.998000000    -3.480000000
O    -3.912000000     4.691000000    -2.450000000
C    -4.173000000     3.443000000    -1.959000000
C    -4.944000000     3.304000000    -0.797000000
H    -5.394000000     4.180000000    -0.338000000
C    -5.090000000     2.067000000    -0.214000000
O    -5.868000000     1.948000000     0.977000000
C    -6.412000000     0.833000000     1.559000000
C    -7.598000000     0.241000000     1.070000000
H    -8.106000000     0.755000000     0.258000000
C    -8.285000000    -0.716000000     1.891000000
H    -9.233000000    -1.125000000     1.550000000
C    -7.599000000    -1.222000000     3.005000000
H    -8.030000000    -2.020000000     3.604000000
C    -6.407000000    -0.705000000     3.424000000
C    -5.810000000     0.393000000     2.740000000
H    -4.820000000     0.739000000     3.024000000
C    -1.395000000     1.581000000     2.901000000
H    -2.183000000     1.623000000     3.649000000
C    -1.459000000     0.703000000     1.813000000
H    -2.364000000     0.140000000     1.598000000
C    -0.383000000     0.512000000     0.971000000
H    -0.576000000    -0.158000000     0.181000000
C     0.794000000     1.190000000     1.298000000
H     1.636000000     0.975000000     0.646000000
C     0.945000000     2.055000000     2.392000000
H     1.905000000     2.486000000     2.668000000
C    -0.153000000     2.168000000     3.229000000
C    -0.035000000     2.917000000     4.499000000
O     1.048000000     3.459000000     4.649000000
O    -0.872000000     2.983000000     5.376000000
O     0.456000000     5.738000000     3.167000000
H     0.701000000     4.974000000     3.688000000
H     1.044000000     6.431000000     3.467000000
O     2.906000000     7.388000000     4.410000000
H     2.211000000     7.990000000     4.675000000
H     3.468000000     7.907000000     3.835000000
O    -3.984000000     6.267000000     6.857000000
H    -3.851000000     6.290000000     7.804000000
H    -3.102000000     6.188000000     6.493000000
O    -3.090000000     4.560000000     3.935000000
H    -3.035000000     4.796000000     4.861000000
H    -2.350000000     3.969000000     3.794000000
O     3.798000000     6.609000000     7.036000000
H     3.458000000     5.719000000     7.125000000
H     3.410000000     6.933000000     6.223000000
O    -0.713000000     5.952000000     0.633000000
H    -0.045000000     5.976000000     1.318000000
H    -0.662000000     5.064000000     0.280000000
O     0.270000000     2.632000000     8.110000000
H    -0.021000000     3.444000000     8.525000000
H    -0.047000000     2.696000000     7.209000000
O    -0.588000000     5.170000000     8.945000000
H     0.125000000     5.805000000     9.022000000
H    -1.044000000     5.219000000     9.784000000
O    -2.923000000     2.653000000     7.213000000
H    -2.261000000     2.811000000     6.540000000
H    -2.994000000     3.486000000     7.679000000
O     2.687000000     3.629000000     6.871000000
H     2.150000000     3.673000000     6.080000000
H     2.098000000     3.284000000     7.542000000
O     5.399000000     5.734000000     4.211000000
H     4.497000000     5.623000000     3.912000000
H     5.492000000     6.677000000     4.348000000
O     5.267000000     2.515000000     7.634000000
H     5.553000000     2.518000000     8.548000000
H     4.311000000     2.499000000     7.683000000
O    -5.082000000     2.612000000     5.311000000
H    -4.231000000     2.298000000     5.619000000
H    -4.876000000     3.384000000     4.785000000
O    -1.378000000     8.041000000     5.406000000
H    -1.152000000     7.115000000     5.495000000
H    -2.091000000     8.054000000     4.769000000
O    -0.615000000     3.373000000     0.105000000
H     0.187000000     2.854000000     0.173000000
H    -1.273000000     2.860000000     0.574000000
O    -1.454000000     5.418000000     6.317000000
H    -1.103000000     4.602000000     5.960000000
H    -0.998000000     5.530000000     7.151000000
O    -3.216000000     6.173000000     1.880000000
H    -3.241000000     5.560000000     2.614000000
H    -2.372000000     6.010000000     1.459000000
O     1.680000000     0.123000000     9.950000000
H     1.409000000     0.622000000     9.180000000
H     1.108000000    -0.644000000     9.953000000
O    -2.878000000     0.325000000     8.889000000
H    -2.444000000     0.776000000     9.613000000
H    -3.075000000     1.017000000     8.259000000
