215
-1480.88957
C     4.840000000    -0.873000000     2.708000000
H     5.243000000    -0.925000000     1.700000000
C     3.802000000    -1.736000000     3.070000000
C     3.307000000    -1.721000000     4.380000000
H     2.533000000    -2.387000000     4.753000000
C     3.122000000    -2.556000000     2.009000000
O     4.076000000    -2.746000000     0.898000000
H     2.312000000    -1.945000000     1.584000000
O     2.601000000    -3.807000000     2.485000000
C     1.363000000    -4.183000000     2.073000000
C     0.288000000    -3.626000000     2.692000000
H     0.413000000    -3.013000000     3.580000000
C    -1.054000000    -3.874000000     2.264000000
O    -2.057000000    -3.282000000     2.946000000
C    -1.256000000    -4.655000000     1.086000000
C    -2.649000000    -4.804000000     0.595000000
H    -2.648000000    -5.656000000    -0.089000000
C    -2.994000000    -3.645000000    -0.206000000
C    -2.904000000    -3.722000000    -1.596000000
H    -2.405000000    -4.582000000    -2.037000000
H    -3.333000000    -5.006000000     1.422000000
C    -0.173000000    -5.096000000     0.373000000
H    -0.321000000    -5.657000000    -0.546000000
C     1.107000000    -4.799000000     0.837000000
C     2.349000000    -5.135000000    -0.070000000
H     2.143000000    -5.977000000    -0.734000000
H     3.106000000    -5.472000000     0.641000000
C     2.771000000    -3.908000000    -0.857000000
C     2.396000000    -3.905000000    -2.225000000
H     1.736000000    -4.678000000    -2.610000000
C     3.591000000    -2.846000000    -0.405000000
C     4.028000000    -1.879000000    -1.280000000
H     4.530000000    -1.020000000    -0.843000000
C     3.481000000    -1.823000000    -2.593000000
O     3.517000000    -0.527000000    -3.162000000
C     2.361000000     0.301000000    -3.189000000
C     2.665000000     1.714000000    -2.804000000
C     2.131000000     2.820000000    -3.483000000
H     1.544000000     2.554000000    -4.358000000
C     3.509000000     1.953000000    -1.735000000
H     3.933000000     1.121000000    -1.179000000
O     1.927000000     0.148000000    -4.543000000
H     1.592000000    -0.032000000    -2.476000000
C     2.708000000    -2.855000000    -3.069000000
C     2.072000000    -2.741000000    -4.426000000
H     1.777000000    -3.723000000    -4.802000000
H     2.799000000    -2.384000000    -5.159000000
C     0.782000000    -1.945000000    -4.400000000
C    -0.431000000    -2.577000000    -4.267000000
H    -0.425000000    -3.664000000    -4.232000000
C     0.767000000    -0.530000000    -4.578000000
C    -0.387000000     0.198000000    -4.681000000
H    -0.445000000     1.279000000    -4.778000000
C    -1.570000000    -0.485000000    -4.466000000
O    -2.701000000     0.293000000    -4.214000000
C    -2.965000000     0.660000000    -2.833000000
C    -3.373000000     2.100000000    -2.705000000
C    -2.771000000     3.080000000    -3.527000000
H    -2.084000000     2.779000000    -4.313000000
C    -4.267000000     2.527000000    -1.737000000
H    -4.718000000     1.750000000    -1.126000000
O    -3.995000000    -0.284000000    -2.357000000
H    -2.045000000     0.530000000    -2.245000000
C    -1.628000000    -1.846000000    -4.206000000
C    -2.944000000    -2.558000000    -3.974000000
H    -2.859000000    -3.602000000    -4.283000000
H    -3.760000000    -2.123000000    -4.555000000
C    -3.241000000    -2.557000000    -2.403000000
C    -3.697000000    -1.482000000    -1.698000000
C    -3.943000000    -1.448000000    -0.337000000
H    -4.394000000    -0.530000000     0.031000000
C    -3.621000000    -2.590000000     0.406000000
O    -3.763000000    -2.543000000     1.765000000
C    -2.622000000    -2.113000000     2.430000000
H    -1.980000000    -1.569000000     1.722000000
C    -2.978000000    -1.028000000     3.528000000
C    -2.123000000    -0.815000000     4.582000000
H    -1.437000000    -1.569000000     4.960000000
C    -3.998000000    -0.076000000     3.293000000
H    -4.607000000    -0.346000000     2.433000000
C    -4.056000000     1.122000000     4.035000000
O    -5.084000000     2.010000000     3.787000000
C    -3.230000000     1.300000000     5.109000000
H    -3.351000000     2.102000000     5.833000000
C    -2.237000000     0.360000000     5.385000000
O    -1.352000000     0.621000000     6.367000000
C    -0.332000000    -0.198000000     6.820000000
C     0.971000000    -0.002000000     6.399000000
H     1.187000000     0.825000000     5.727000000
C    -0.613000000    -1.161000000     7.802000000
H    -1.608000000    -1.219000000     8.235000000
C     0.353000000    -2.063000000     8.249000000
H     0.153000000    -2.783000000     9.038000000
C     1.626000000    -1.892000000     7.774000000
H     2.453000000    -2.567000000     7.977000000
C     1.930000000    -0.839000000     6.921000000
O     3.260000000    -0.608000000     6.612000000
C     3.730000000    -0.730000000     5.286000000
C     4.825000000     0.095000000     4.911000000
H     5.159000000     0.861000000     5.606000000
C     5.345000000     0.039000000     3.639000000
O     6.294000000     0.974000000     3.390000000
C     6.425000000     1.463000000     2.048000000
C     5.572000000     2.405000000     1.577000000
H     4.732000000     2.702000000     2.200000000
C     7.365000000     0.850000000     1.233000000
H     8.061000000     0.107000000     1.615000000
C     7.334000000     1.166000000    -0.145000000
H     7.984000000     0.623000000    -0.827000000
C     6.472000000     2.173000000    -0.637000000
H     6.383000000     2.325000000    -1.709000000
C     5.575000000     2.835000000     0.247000000
O     4.441000000     3.509000000    -0.157000000
C     3.709000000     3.243000000    -1.340000000
C     3.130000000     4.326000000    -1.960000000
H     3.241000000     5.301000000    -1.491000000
C     2.365000000     4.128000000    -3.082000000
O     1.976000000     5.234000000    -3.819000000
C     0.843000000     5.445000000    -4.592000000
C    -0.357000000     5.538000000    -3.917000000
H    -0.421000000     5.385000000    -2.843000000
C     1.008000000     5.500000000    -5.997000000
H     1.978000000     5.453000000    -6.484000000
C    -0.231000000     5.712000000    -6.752000000
H    -0.271000000     5.786000000    -7.836000000
C    -1.402000000     5.899000000    -6.077000000
H    -2.350000000     5.921000000    -6.608000000
C    -1.472000000     5.637000000    -4.723000000
O    -2.732000000     5.486000000    -4.144000000
C    -3.147000000     4.419000000    -3.350000000
C    -4.063000000     4.818000000    -2.379000000
H    -4.303000000     5.866000000    -2.217000000
C    -4.621000000     3.870000000    -1.533000000
O    -5.355000000     4.262000000    -0.465000000
C    -5.831000000     3.284000000     0.442000000
C    -7.018000000     2.633000000     0.153000000
H    -7.607000000     2.887000000    -0.724000000
C    -7.455000000     1.573000000     0.944000000
H    -8.316000000     0.999000000     0.612000000
C    -6.753000000     1.371000000     2.139000000
H    -7.054000000     0.631000000     2.875000000
C    -5.612000000     2.087000000     2.510000000
C    -5.125000000     3.036000000     1.599000000
H    -4.211000000     3.557000000     1.872000000
C    -0.779000000     1.363000000     1.566000000
H    -1.547000000     1.918000000     2.098000000
C    -1.050000000     0.568000000     0.426000000
H    -2.032000000     0.521000000    -0.039000000
C    -0.044000000    -0.161000000    -0.192000000
H    -0.119000000    -0.829000000    -1.092000000
C     1.203000000    -0.017000000     0.270000000
H     2.046000000    -0.507000000    -0.209000000
C     1.506000000     0.756000000     1.429000000
H     2.522000000     0.812000000     1.810000000
C     0.494000000     1.405000000     2.115000000
C     0.835000000     2.415000000     3.192000000
O     2.035000000     2.651000000     3.402000000
O    -0.087000000     2.964000000     3.784000000
O     6.281000000     5.082000000     5.368000000
H     6.870000000     4.338000000     5.243000000
H     5.498000000     4.703000000     5.769000000
O     1.373000000     4.092000000     0.556000000
H     2.325000000     4.025000000     0.483000000
H     1.078000000     3.189000000     0.672000000
O    -0.275000000     5.358000000     4.941000000
H    -0.352000000     4.554000000     4.427000000
H     0.668000000     5.498000000     5.026000000
O     0.417000000     6.526000000     0.679000000
H     0.589000000     5.602000000     0.859000000
H    -0.128000000     6.518000000    -0.108000000
O     0.657000000     5.226000000     8.552000000
H     0.298000000     6.040000000     8.199000000
H    -0.105000000     4.753000000     8.887000000
O    -2.056000000     7.025000000     5.820000000
H    -1.398000000     6.436000000     5.451000000
H    -1.865000000     7.040000000     6.758000000
O     5.743000000     6.086000000     2.099000000
H     6.268000000     6.197000000     2.892000000
H     4.980000000     5.584000000     2.386000000
O    -0.586000000     3.134000000     6.821000000
H    -0.530000000     2.310000000     6.336000000
H    -0.907000000     3.768000000     6.180000000
O     0.390000000     8.298000000     2.865000000
H     0.953000000     7.873000000     3.512000000
H     0.411000000     7.712000000     2.108000000
O     2.101000000     4.045000000     5.651000000
H     1.944000000     3.552000000     4.846000000
H     1.415000000     3.749000000     6.250000000
O     3.417000000     4.981000000     2.848000000
H     3.054000000     4.132000000     3.100000000
H     3.022000000     5.601000000     3.462000000
O     4.587000000     3.547000000     6.561000000
H     3.734000000     3.892000000     6.297000000
H     4.396000000     2.676000000     6.908000000
O    -4.457000000     4.919000000     6.150000000
H    -3.781000000     5.586000000     6.030000000
H    -5.143000000     5.158000000     5.526000000
O    -1.947000000     4.900000000     2.716000000
H    -1.269000000     5.544000000     2.917000000
H    -1.779000000     4.178000000     3.321000000
O     3.163000000     7.958000000    -0.390000000
H     3.828000000     8.326000000     0.192000000
H     2.532000000     7.546000000     0.200000000
O     2.252000000     6.879000000     4.433000000
H     2.282000000     6.692000000     5.371000000
H     3.100000000     7.280000000     4.242000000
O    -3.195000000     6.866000000     1.073000000
H    -2.707000000     6.045000000     1.132000000
H    -2.728000000     7.464000000     1.657000000
O     0.570000000     2.054000000     9.140000000
H     1.505000000     2.224000000     9.252000000
H     0.301000000     2.644000000     8.435000000
O    -3.260000000     1.833000000     8.520000000
H    -2.529000000     2.052000000     7.942000000
H    -3.245000000     2.514000000     9.193000000
