215
-1460.57128
C     4.523000000     0.085000000     2.363000000
H     5.006000000     0.069000000     1.389000000
C     3.604000000    -0.913000000     2.714000000
C     2.876000000    -0.836000000     3.949000000
H     2.117000000    -1.578000000     4.185000000
C     3.204000000    -1.988000000     1.726000000
O     4.245000000    -2.166000000     0.741000000
H     2.270000000    -1.652000000     1.250000000
O     2.917000000    -3.240000000     2.398000000
C     1.831000000    -3.899000000     1.960000000
C     0.694000000    -3.763000000     2.710000000
H     0.743000000    -3.318000000     3.700000000
C    -0.519000000    -4.252000000     2.254000000
O    -1.583000000    -3.928000000     3.047000000
C    -0.541000000    -4.863000000     0.959000000
C    -1.790000000    -5.272000000     0.342000000
H    -1.625000000    -6.096000000    -0.355000000
C    -2.560000000    -4.165000000    -0.414000000
C    -2.520000000    -4.103000000    -1.800000000
H    -2.141000000    -5.026000000    -2.232000000
H    -2.423000000    -5.680000000     1.133000000
C     0.654000000    -5.099000000     0.209000000
H     0.693000000    -5.501000000    -0.800000000
C     1.844000000    -4.564000000     0.718000000
C     3.022000000    -4.625000000    -0.185000000
H     3.001000000    -5.483000000    -0.860000000
H     3.888000000    -4.863000000     0.435000000
C     3.184000000    -3.390000000    -1.042000000
C     2.685000000    -3.357000000    -2.387000000
H     2.154000000    -4.249000000    -2.709000000
C     3.880000000    -2.304000000    -0.622000000
C     4.065000000    -1.209000000    -1.410000000
H     4.617000000    -0.362000000    -1.012000000
C     3.570000000    -1.213000000    -2.719000000
O     3.705000000    -0.007000000    -3.454000000
C     2.471000000     0.777000000    -3.551000000
C     2.733000000     2.289000000    -3.331000000
C     2.176000000     3.301000000    -4.168000000
H     1.504000000     3.049000000    -4.985000000
C     3.454000000     2.633000000    -2.213000000
H     3.779000000     1.854000000    -1.528000000
O     1.859000000     0.465000000    -4.840000000
H     1.655000000     0.492000000    -2.871000000
C     2.834000000    -2.277000000    -3.195000000
C     2.285000000    -2.429000000    -4.575000000
H     2.184000000    -3.463000000    -4.914000000
H     2.974000000    -1.927000000    -5.258000000
C     0.884000000    -1.747000000    -4.658000000
C    -0.241000000    -2.587000000    -4.451000000
H    -0.130000000    -3.625000000    -4.150000000
C     0.799000000    -0.399000000    -4.754000000
C    -0.435000000     0.185000000    -4.666000000
H    -0.458000000     1.264000000    -4.793000000
C    -1.613000000    -0.577000000    -4.495000000
O    -2.828000000     0.083000000    -4.269000000
C    -3.125000000     0.245000000    -2.838000000
C    -3.676000000     1.614000000    -2.459000000
C    -3.164000000     2.709000000    -3.144000000
H    -2.489000000     2.535000000    -3.978000000
C    -4.476000000     1.812000000    -1.381000000
H    -4.738000000     0.990000000    -0.720000000
O    -4.005000000    -0.780000000    -2.309000000
H    -2.201000000     0.148000000    -2.249000000
C    -1.532000000    -1.972000000    -4.414000000
C    -2.716000000    -2.849000000    -4.079000000
H    -2.623000000    -3.836000000    -4.536000000
H    -3.593000000    -2.461000000    -4.601000000
C    -2.929000000    -2.961000000    -2.524000000
C    -3.510000000    -1.936000000    -1.753000000
C    -3.664000000    -2.038000000    -0.348000000
H    -4.184000000    -1.301000000     0.258000000
C    -3.100000000    -3.054000000     0.305000000
O    -3.290000000    -3.062000000     1.633000000
C    -2.222000000    -2.674000000     2.593000000
H    -1.529000000    -1.990000000     2.080000000
C    -2.742000000    -1.717000000     3.587000000
C    -2.155000000    -1.696000000     4.852000000
H    -1.321000000    -2.373000000     5.023000000
C    -3.848000000    -0.964000000     3.443000000
H    -4.307000000    -1.020000000     2.459000000
C    -4.326000000    -0.100000000     4.410000000
O    -5.433000000     0.721000000     4.281000000
C    -3.729000000    -0.102000000     5.648000000
H    -3.980000000     0.626000000     6.416000000
C    -2.542000000    -0.809000000     5.847000000
O    -1.912000000    -0.814000000     7.084000000
C    -0.554000000    -0.864000000     7.316000000
C     0.425000000    -0.347000000     6.416000000
H     0.058000000    -0.009000000     5.450000000
C    -0.186000000    -1.369000000     8.541000000
H    -0.901000000    -1.789000000     9.244000000
C     1.190000000    -1.283000000     8.957000000
H     1.426000000    -1.651000000     9.953000000
C     2.142000000    -0.780000000     8.023000000
H     3.176000000    -0.740000000     8.356000000
C     1.723000000    -0.347000000     6.786000000
O     2.692000000     0.389000000     6.082000000
C     3.182000000     0.233000000     4.837000000
C     4.209000000     1.110000000     4.588000000
H     4.500000000     1.743000000     5.422000000
C     4.813000000     1.060000000     3.366000000
O     5.869000000     1.939000000     3.188000000
C     6.106000000     2.566000000     1.945000000
C     5.156000000     3.317000000     1.270000000
H     4.189000000     3.537000000     1.715000000
C     7.261000000     2.155000000     1.244000000
H     8.025000000     1.596000000     1.777000000
C     7.451000000     2.468000000    -0.079000000
H     8.369000000     2.095000000    -0.527000000
C     6.489000000     3.191000000    -0.794000000
H     6.669000000     3.443000000    -1.835000000
C     5.272000000     3.550000000    -0.094000000
O     4.263000000     4.259000000    -0.712000000
C     3.728000000     3.930000000    -1.924000000
C     3.155000000     4.934000000    -2.800000000
H     3.370000000     5.979000000    -2.595000000
C     2.266000000     4.610000000    -3.798000000
O     1.567000000     5.634000000    -4.421000000
C     0.303000000     5.346000000    -4.847000000
C    -0.800000000     5.287000000    -3.901000000
H    -0.517000000     5.426000000    -2.861000000
C     0.104000000     5.286000000    -6.195000000
H     0.860000000     5.401000000    -6.968000000
C    -1.231000000     5.124000000    -6.650000000
H    -1.486000000     5.061000000    -7.705000000
C    -2.244000000     5.085000000    -5.791000000
H    -3.267000000     4.992000000    -6.146000000
C    -2.079000000     5.162000000    -4.421000000
O    -3.143000000     5.163000000    -3.545000000
C    -3.569000000     4.002000000    -2.812000000
C    -4.305000000     4.239000000    -1.691000000
H    -4.601000000     5.191000000    -1.258000000
C    -4.763000000     3.104000000    -0.905000000
O    -5.300000000     3.338000000     0.348000000
C    -5.845000000     2.312000000     1.068000000
C    -6.984000000     1.702000000     0.578000000
H    -7.345000000     1.995000000    -0.405000000
C    -7.609000000     0.759000000     1.329000000
H    -8.589000000     0.442000000     0.984000000
C    -7.215000000     0.390000000     2.619000000
H    -7.801000000    -0.367000000     3.133000000
C    -6.050000000     1.046000000     3.077000000
C    -5.359000000     2.045000000     2.332000000
H    -4.387000000     2.447000000     2.604000000
C    -0.975000000     1.272000000     1.964000000
H    -1.899000000     1.563000000     2.458000000
C    -1.156000000     0.424000000     0.865000000
H    -2.128000000     0.031000000     0.576000000
C    -0.067000000    -0.089000000     0.130000000
H    -0.141000000    -0.748000000    -0.751000000
C     1.199000000     0.321000000     0.472000000
H     2.034000000     0.046000000    -0.167000000
C     1.341000000     1.298000000     1.508000000
H     2.283000000     1.816000000     1.668000000
C     0.309000000     1.717000000     2.274000000
C     0.579000000     2.652000000     3.429000000
O     1.671000000     3.252000000     3.489000000
O    -0.241000000     2.796000000     4.338000000
O     1.316000000     4.942000000     1.458000000
H     1.412000000     4.354000000     2.207000000
H     2.213000000     5.115000000     1.172000000
O     2.742000000     7.790000000     3.940000000
H     2.362000000     8.007000000     4.792000000
H     3.639000000     8.120000000     3.988000000
O    -1.041000000     5.372000000     3.905000000
H    -0.808000000     4.485000000     4.179000000
H    -0.643000000     5.940000000     4.565000000
O     2.069000000     6.369000000     8.621000000
H     1.142000000     6.345000000     8.861000000
H     2.266000000     5.478000000     8.334000000
O    -0.426000000     6.243000000    -0.179000000
H     0.210000000     6.275000000     0.536000000
H    -0.464000000     5.319000000    -0.425000000
O    -0.866000000     5.925000000     8.823000000
H    -1.809000000     6.073000000     8.895000000
H    -0.774000000     5.317000000     8.090000000
O    -3.693000000     5.457000000     5.346000000
H    -3.163000000     5.412000000     4.551000000
H    -3.877000000     6.390000000     5.459000000
O     6.486000000     5.723000000     3.099000000
H     6.508000000     4.833000000     3.452000000
H     5.554000000     5.938000000     3.052000000
O    -0.417000000     3.569000000     6.845000000
H    -0.333000000     3.381000000     5.910000000
H    -0.586000000     2.717000000     7.247000000
O    -0.967000000     8.065000000     2.634000000
H    -1.492000000     7.798000000     1.879000000
H    -0.750000000     7.244000000     3.076000000
O     2.193000000     4.386000000     6.194000000
H     2.189000000     4.311000000     5.240000000
H     1.348000000     4.028000000     6.466000000
O     4.573000000     1.751000000     8.258000000
H     4.834000000     1.027000000     7.688000000
H     3.758000000     2.075000000     7.875000000
O     3.853000000     5.335000000     3.258000000
H     3.319000000     4.625000000     3.614000000
H     3.404000000     6.134000000     3.533000000
O     4.688000000     5.824000000     6.677000000
H     3.760000000     5.596000000     6.640000000
H     5.144000000     5.015000000     6.444000000
O    -2.971000000     7.465000000     0.371000000
H    -3.193000000     6.654000000     0.829000000
H    -2.323000000     7.201000000    -0.282000000
O    -1.058000000     3.549000000    -0.319000000
H    -1.699000000     3.268000000    -0.971000000
H    -1.023000000     2.827000000     0.309000000
O     0.129000000     6.548000000     5.927000000
H     0.080000000     7.420000000     6.318000000
H     0.940000000     6.176000000     6.272000000
O    -3.311000000     5.218000000     2.246000000
H    -3.235000000     4.509000000     1.607000000
H    -2.485000000     5.193000000     2.730000000
O     1.406000000     1.875000000    10.444000000
H     0.786000000     2.534000000    10.756000000
H     1.082000000     1.634000000     9.576000000
