215
-1457.69452
C     4.766000000     0.694000000     1.873000000
H     4.718000000     1.215000000     0.920000000
C     4.314000000    -0.628000000     1.954000000
C     4.213000000    -1.124000000     3.244000000
H     3.899000000    -2.153000000     3.404000000
C     3.957000000    -1.432000000     0.735000000
O     4.931000000    -1.311000000    -0.356000000
H     2.996000000    -1.118000000     0.302000000
O     3.946000000    -2.901000000     1.009000000
C     2.811000000    -3.606000000     0.627000000
C     1.812000000    -3.651000000     1.571000000
H     1.948000000    -3.254000000     2.574000000
C     0.665000000    -4.302000000     1.154000000
O    -0.369000000    -4.402000000     2.086000000
C     0.490000000    -4.789000000    -0.170000000
C    -0.792000000    -5.362000000    -0.634000000
H    -0.684000000    -6.136000000    -1.397000000
C    -1.768000000    -4.285000000    -1.068000000
C    -1.889000000    -4.010000000    -2.458000000
H    -1.099000000    -4.446000000    -3.063000000
H    -1.130000000    -6.004000000     0.182000000
C     1.507000000    -4.542000000    -1.098000000
H     1.426000000    -4.877000000    -2.129000000
C     2.727000000    -3.918000000    -0.721000000
C     3.876000000    -3.686000000    -1.722000000
H     3.860000000    -4.460000000    -2.492000000
H     4.894000000    -3.710000000    -1.325000000
C     3.777000000    -2.312000000    -2.300000000
C     3.039000000    -2.094000000    -3.435000000
H     2.478000000    -2.865000000    -3.956000000
C     4.277000000    -1.201000000    -1.599000000
C     4.107000000     0.065000000    -2.146000000
H     4.523000000     0.864000000    -1.537000000
C     3.264000000     0.313000000    -3.263000000
O     3.011000000     1.614000000    -3.678000000
C     1.693000000     2.125000000    -3.319000000
C     1.654000000     3.504000000    -2.671000000
C     0.475000000     4.259000000    -2.608000000
H    -0.391000000     3.949000000    -3.186000000
C     2.831000000     4.000000000    -2.033000000
H     3.762000000     3.441000000    -2.052000000
O     0.836000000     2.001000000    -4.420000000
H     1.261000000     1.533000000    -2.499000000
C     2.776000000    -0.794000000    -3.912000000
C     1.959000000    -0.551000000    -5.141000000
H     2.075000000    -1.449000000    -5.752000000
H     2.318000000     0.315000000    -5.701000000
C     0.474000000    -0.380000000    -4.784000000
C    -0.401000000    -1.410000000    -4.820000000
H    -0.026000000    -2.407000000    -5.036000000
C     0.032000000     0.866000000    -4.395000000
C    -1.332000000     1.113000000    -4.087000000
H    -1.745000000     2.094000000    -3.864000000
C    -2.181000000     0.018000000    -4.143000000
O    -3.451000000     0.213000000    -3.779000000
C    -3.702000000    -0.030000000    -2.360000000
C    -4.429000000     1.082000000    -1.651000000
C    -4.332000000     2.419000000    -1.922000000
H    -3.674000000     2.687000000    -2.745000000
C    -5.322000000     0.767000000    -0.599000000
H    -5.504000000    -0.262000000    -0.299000000
O    -4.328000000    -1.311000000    -2.290000000
H    -2.743000000    -0.034000000    -1.822000000
C    -1.707000000    -1.275000000    -4.422000000
C    -2.629000000    -2.477000000    -4.355000000
H    -2.194000000    -3.149000000    -5.098000000
H    -3.618000000    -2.254000000    -4.761000000
C    -2.697000000    -3.012000000    -2.941000000
C    -3.565000000    -2.414000000    -1.939000000
C    -3.408000000    -2.627000000    -0.539000000
H    -4.145000000    -2.206000000     0.141000000
C    -2.550000000    -3.619000000    -0.146000000
O    -2.529000000    -3.925000000     1.246000000
C    -1.386000000    -3.338000000     2.017000000
H    -0.976000000    -2.448000000     1.518000000
C    -1.857000000    -2.794000000     3.341000000
C    -1.005000000    -2.855000000     4.468000000
H    -0.166000000    -3.525000000     4.302000000
C    -3.071000000    -2.108000000     3.461000000
H    -3.664000000    -2.027000000     2.554000000
C    -3.326000000    -1.413000000     4.636000000
O    -4.368000000    -0.537000000     4.693000000
C    -2.458000000    -1.466000000     5.736000000
H    -2.648000000    -0.863000000     6.620000000
C    -1.289000000    -2.278000000     5.736000000
O    -0.346000000    -2.252000000     6.762000000
C     1.008000000    -2.510000000     6.494000000
C     1.955000000    -1.467000000     6.210000000
H     1.698000000    -0.411000000     6.241000000
C     1.467000000    -3.837000000     6.740000000
H     0.821000000    -4.590000000     7.182000000
C     2.783000000    -4.098000000     6.586000000
H     3.128000000    -5.114000000     6.760000000
C     3.683000000    -3.135000000     6.090000000
H     4.720000000    -3.445000000     5.989000000
C     3.299000000    -1.785000000     5.999000000
O     4.294000000    -0.876000000     5.719000000
C     4.514000000    -0.388000000     4.406000000
C     4.868000000     0.972000000     4.225000000
H     5.026000000     1.604000000     5.096000000
C     5.028000000     1.539000000     2.940000000
O     5.346000000     2.895000000     2.784000000
C     5.605000000     3.584000000     1.609000000
C     4.609000000     4.195000000     0.954000000
H     3.625000000     4.320000000     1.401000000
C     6.909000000     3.500000000     1.061000000
H     7.703000000     2.931000000     1.539000000
C     7.167000000     4.082000000    -0.255000000
H     8.183000000     4.086000000    -0.642000000
C     6.156000000     4.867000000    -0.804000000
H     6.442000000     5.506000000    -1.635000000
C     4.925000000     4.947000000    -0.188000000
O     3.963000000     5.766000000    -0.774000000
C     2.838000000     5.256000000    -1.396000000
C     1.684000000     5.985000000    -1.329000000
H     1.731000000     7.009000000    -0.968000000
C     0.528000000     5.500000000    -1.927000000
O    -0.561000000     6.322000000    -1.940000000
C    -1.769000000     6.083000000    -2.503000000
C    -2.905000000     5.641000000    -1.787000000
H    -2.842000000     5.604000000    -0.702000000
C    -1.816000000     6.160000000    -3.830000000
H    -0.976000000     6.418000000    -4.470000000
C    -2.966000000     5.886000000    -4.508000000
H    -2.951000000     5.945000000    -5.593000000
C    -4.071000000     5.425000000    -3.857000000
H    -5.014000000     5.173000000    -4.336000000
C    -3.985000000     5.220000000    -2.469000000
O    -5.000000000     4.762000000    -1.727000000
C    -5.092000000     3.436000000    -1.315000000
C    -6.034000000     3.034000000    -0.304000000
H    -6.761000000     3.725000000     0.115000000
C    -6.092000000     1.719000000     0.089000000
O    -7.057000000     1.338000000     1.039000000
C    -6.811000000     0.397000000     1.978000000
C    -7.684000000    -0.730000000     2.062000000
H    -8.469000000    -0.914000000     1.333000000
C    -7.477000000    -1.632000000     3.080000000
H    -8.141000000    -2.472000000     3.267000000
C    -6.361000000    -1.545000000     3.944000000
H    -6.214000000    -2.267000000     4.743000000
C    -5.423000000    -0.530000000     3.762000000
C    -5.709000000     0.504000000     2.844000000
H    -5.003000000     1.319000000     2.705000000
C    -0.512000000     0.655000000     2.780000000
H    -1.271000000     0.169000000     3.387000000
C    -0.629000000     0.559000000     1.397000000
H    -1.393000000    -0.050000000     0.920000000
C     0.280000000     1.260000000     0.595000000
H     0.154000000     1.217000000    -0.482000000
C     1.388000000     1.939000000     1.145000000
H     2.069000000     2.484000000     0.496000000
C     1.411000000     2.089000000     2.592000000
H     2.187000000     2.680000000     3.071000000
C     0.481000000     1.448000000     3.410000000
C     0.547000000     1.668000000     4.880000000
O     1.189000000     2.611000000     5.289000000
O    -0.183000000     1.048000000     5.630000000
O     0.533000000     4.894000000     4.232000000
H     0.567000000     3.991000000     4.546000000
H     0.788000000     5.421000000     4.989000000
O     2.205000000     6.896000000     6.182000000
H     2.096000000     6.635000000     7.096000000
H     1.691000000     7.700000000     6.099000000
O     4.840000000    -1.136000000     9.132000000
H     4.137000000    -1.281000000     8.499000000
H     5.301000000    -0.363000000     8.804000000
O    -2.801000000     2.067000000     5.144000000
H    -3.331000000     1.314000000     4.882000000
H    -1.951000000     1.692000000     5.376000000
O    -0.957000000     5.208000000     2.012000000
H    -0.362000000     5.063000000     2.747000000
H    -1.698000000     4.628000000     2.186000000
O     1.010000000     2.695000000     7.890000000
H     0.073000000     2.754000000     8.078000000
H     1.053000000     2.404000000     6.979000000
O    -3.145000000     4.404000000     8.038000000
H    -2.830000000     3.533000000     8.279000000
H    -2.795000000     4.550000000     7.159000000
O    -1.148000000     0.992000000     8.156000000
H    -0.761000000     0.813000000     7.299000000
H    -1.615000000     0.187000000     8.382000000
O    -5.499000000     4.589000000     5.424000000
H    -4.654000000     4.445000000     4.997000000
H    -5.274000000     4.913000000     6.296000000
O     3.510000000     3.606000000     6.514000000
H     2.923000000     4.004000000     7.157000000
H     2.931000000     3.106000000     5.938000000
O     6.002000000     1.292000000     8.273000000
H     6.675000000     1.477000000     7.617000000
H     5.304000000     1.918000000     8.082000000
O     5.413000000     5.635000000     6.681000000
H     4.736000000     4.975000000     6.529000000
H     6.108000000     5.412000000     6.060000000
O     4.030000000     6.614000000     3.873000000
H     3.407000000     5.989000000     3.503000000
H     3.752000000     6.721000000     4.783000000
O    -2.511000000     3.011000000     2.426000000
H    -2.647000000     2.383000000     3.135000000
H    -1.639000000     2.805000000     2.088000000
O    -1.792000000     2.495000000    10.386000000
H    -1.453000000     1.985000000     9.650000000
H    -2.166000000     1.842000000    10.977000000
O    -2.200000000     4.727000000     5.400000000
H    -2.518000000     3.827000000     5.335000000
H    -1.489000000     4.777000000     4.761000000
O     0.016000000     4.455000000    10.647000000
H    -0.695000000     3.814000000    10.651000000
H     0.700000000     4.050000000    10.114000000
O     2.235000000     1.187000000     9.944000000
H     1.697000000     1.542000000     9.236000000
H     3.003000000     1.759000000     9.970000000
O    -1.037000000    -1.449000000     9.447000000
H    -1.688000000    -2.136000000     9.587000000
H    -0.541000000    -1.741000000     8.682000000
