215
-1423.74301
C     4.292000000     0.044000000     2.838000000
H     4.623000000     0.004000000     1.804000000
C     3.370000000    -0.959000000     3.298000000
C     2.959000000    -0.840000000     4.638000000
H     2.321000000    -1.646000000     4.991000000
C     2.936000000    -2.045000000     2.325000000
O     4.029000000    -2.587000000     1.488000000
H     2.269000000    -1.568000000     1.592000000
O     2.150000000    -3.132000000     3.018000000
C     1.076000000    -3.714000000     2.436000000
C    -0.079000000    -3.326000000     3.056000000
H    -0.128000000    -2.604000000     3.867000000
C    -1.322000000    -3.725000000     2.445000000
O    -2.445000000    -3.158000000     2.863000000
C    -1.323000000    -4.523000000     1.282000000
C    -2.621000000    -4.838000000     0.660000000
H    -2.471000000    -5.750000000     0.079000000
C    -3.109000000    -3.867000000    -0.332000000
C    -2.667000000    -3.989000000    -1.644000000
H    -2.039000000    -4.823000000    -1.946000000
H    -3.408000000    -4.895000000     1.416000000
C    -0.074000000    -4.826000000     0.659000000
H    -0.139000000    -5.394000000    -0.266000000
C     1.121000000    -4.531000000     1.304000000
C     2.463000000    -4.962000000     0.720000000
H     2.302000000    -5.893000000     0.173000000
H     3.130000000    -5.246000000     1.537000000
C     2.930000000    -3.859000000    -0.236000000
C     2.548000000    -3.980000000    -1.576000000
H     1.982000000    -4.863000000    -1.862000000
C     3.697000000    -2.789000000     0.200000000
C     4.037000000    -1.748000000    -0.671000000
H     4.634000000    -0.914000000    -0.311000000
C     3.716000000    -1.833000000    -1.993000000
O     3.874000000    -0.666000000    -2.739000000
C     2.706000000     0.188000000    -2.898000000
C     3.104000000     1.625000000    -2.661000000
C     2.149000000     2.620000000    -2.840000000
H     1.106000000     2.456000000    -3.097000000
C     4.346000000     1.959000000    -2.210000000
H     5.080000000     1.185000000    -2.001000000
O     2.172000000    -0.114000000    -4.172000000
H     2.012000000    -0.040000000    -2.076000000
C     2.953000000    -2.919000000    -2.465000000
C     2.393000000    -2.967000000    -3.855000000
H     2.309000000    -4.011000000    -4.164000000
H     3.121000000    -2.642000000    -4.602000000
C     1.107000000    -2.238000000    -4.080000000
C    -0.079000000    -2.996000000    -4.064000000
H    -0.028000000    -4.082000000    -4.034000000
C     1.091000000    -0.886000000    -4.313000000
C    -0.114000000    -0.158000000    -4.436000000
H    -0.150000000     0.924000000    -4.336000000
C    -1.293000000    -0.955000000    -4.424000000
O    -2.386000000    -0.115000000    -4.504000000
C    -3.155000000     0.107000000    -3.305000000
C    -3.663000000     1.618000000    -3.304000000
C    -2.970000000     2.680000000    -4.015000000
H    -2.042000000     2.476000000    -4.543000000
C    -4.710000000     1.927000000    -2.469000000
H    -5.160000000     1.203000000    -1.795000000
O    -4.180000000    -0.882000000    -3.119000000
H    -2.355000000     0.026000000    -2.554000000
C    -1.283000000    -2.343000000    -4.280000000
C    -2.507000000    -3.121000000    -4.039000000
H    -2.354000000    -4.132000000    -4.422000000
H    -3.335000000    -2.761000000    -4.652000000
C    -3.035000000    -2.994000000    -2.595000000
C    -3.843000000    -1.916000000    -2.251000000
C    -4.148000000    -1.730000000    -0.910000000
H    -4.582000000    -0.771000000    -0.639000000
C    -3.753000000    -2.640000000     0.042000000
O    -4.023000000    -2.452000000     1.364000000
C    -2.931000000    -1.988000000     2.188000000
H    -2.168000000    -1.672000000     1.461000000
C    -3.281000000    -0.853000000     3.185000000
C    -2.720000000    -0.829000000     4.508000000
H    -2.203000000    -1.680000000     4.944000000
C    -3.948000000     0.259000000     2.649000000
H    -4.196000000     0.316000000     1.592000000
C    -4.185000000     1.380000000     3.468000000
O    -4.850000000     2.537000000     2.980000000
C    -3.602000000     1.474000000     4.701000000
H    -3.866000000     2.369000000     5.259000000
C    -2.835000000     0.393000000     5.213000000
O    -2.326000000     0.402000000     6.474000000
C    -1.098000000    -0.088000000     6.904000000
C     0.102000000     0.620000000     6.600000000
H     0.150000000     1.495000000     5.957000000
C    -1.034000000    -1.338000000     7.550000000
H    -1.899000000    -1.963000000     7.756000000
C     0.213000000    -1.838000000     7.927000000
H     0.240000000    -2.820000000     8.393000000
C     1.417000000    -1.179000000     7.681000000
H     2.312000000    -1.669000000     8.059000000
C     1.335000000     0.063000000     6.992000000
O     2.541000000     0.545000000     6.555000000
C     3.268000000     0.312000000     5.375000000
C     4.230000000     1.164000000     4.861000000
H     4.529000000     2.032000000     5.443000000
C     4.917000000     0.911000000     3.734000000
O     5.832000000     1.919000000     3.258000000
C     6.291000000     1.964000000     1.997000000
C     5.808000000     2.885000000     1.070000000
H     4.982000000     3.566000000     1.257000000
C     7.395000000     1.256000000     1.625000000
H     7.873000000     0.654000000     2.393000000
C     8.171000000     1.442000000     0.476000000
H     9.124000000     0.949000000     0.305000000
C     7.585000000     2.237000000    -0.494000000
H     7.943000000     2.312000000    -1.517000000
C     6.400000000     2.901000000    -0.217000000
O     5.836000000     3.677000000    -1.159000000
C     4.642000000     3.302000000    -1.768000000
C     3.788000000     4.305000000    -2.085000000
H     3.996000000     5.346000000    -1.853000000
C     2.583000000     3.962000000    -2.641000000
O     1.795000000     5.011000000    -2.990000000
C     0.930000000     4.994000000    -4.050000000
C    -0.422000000     5.068000000    -3.742000000
H    -0.656000000     4.974000000    -2.685000000
C     1.379000000     4.979000000    -5.366000000
H     2.439000000     4.871000000    -5.584000000
C     0.448000000     4.999000000    -6.384000000
H     0.844000000     4.983000000    -7.396000000
C    -0.898000000     5.018000000    -6.124000000
H    -1.540000000     4.918000000    -6.995000000
C    -1.360000000     5.030000000    -4.820000000
O    -2.750000000     5.021000000    -4.622000000
C    -3.429000000     4.010000000    -3.936000000
C    -4.508000000     4.273000000    -3.098000000
H    -4.915000000     5.279000000    -3.041000000
C    -5.029000000     3.278000000    -2.265000000
O    -6.045000000     3.569000000    -1.381000000
C    -6.350000000     2.904000000    -0.238000000
C    -7.451000000     2.121000000    -0.177000000
H    -8.179000000     2.051000000    -0.981000000
C    -7.690000000     1.462000000     0.982000000
H    -8.444000000     0.695000000     1.143000000
C    -6.847000000     1.626000000     2.076000000
H    -7.030000000     1.044000000     2.976000000
C    -5.736000000     2.442000000     1.949000000
C    -5.500000000     3.059000000     0.757000000
H    -4.604000000     3.655000000     0.603000000
C    -1.366000000     2.434000000     1.182000000
H    -2.306000000     2.959000000     1.331000000
C    -1.307000000     1.529000000     0.134000000
H    -2.064000000     1.410000000    -0.637000000
C    -0.154000000     0.732000000     0.031000000
H    -0.088000000    -0.058000000    -0.693000000
C     0.873000000     0.911000000     0.939000000
H     1.808000000     0.380000000     0.784000000
C     0.768000000     1.827000000     1.995000000
H     1.583000000     1.944000000     2.705000000
C    -0.348000000     2.600000000     2.133000000
C    -0.458000000     3.563000000     3.271000000
O     0.404000000     3.657000000     4.125000000
O    -1.278000000     4.438000000     3.147000000
O     4.357000000     5.985000000     5.608000000
H     3.568000000     5.445000000     5.645000000
H     5.018000000     5.476000000     6.077000000
O    -2.453000000     6.715000000     6.186000000
H    -2.345000000     6.613000000     7.132000000
H    -2.892000000     5.912000000     5.906000000
O     1.116000000     6.064000000     0.178000000
H     1.449000000     6.959000000     0.254000000
H     1.704000000     5.643000000    -0.449000000
O    -4.333000000     2.468000000     8.021000000
H    -4.911000000     3.040000000     7.517000000
H    -3.451000000     2.711000000     7.739000000
O    -0.846000000     6.758000000     4.064000000
H    -0.913000000     5.846000000     3.784000000
H    -1.379000000     6.805000000     4.858000000
O    -1.271000000     4.168000000     6.655000000
H    -0.552000000     4.711000000     6.977000000
H    -0.966000000     3.844000000     5.807000000
O     4.862000000     5.614000000     3.084000000
H     3.952000000     5.361000000     2.926000000
H     4.929000000     5.686000000     4.036000000
O     2.276000000     4.067000000     5.869000000
H     1.690000000     3.922000000     5.127000000
H     2.162000000     3.293000000     6.419000000
O    -4.349000000     6.421000000    -0.107000000
H    -3.592000000     5.858000000     0.056000000
H    -4.804000000     6.459000000     0.734000000
O     1.734000000     3.066000000     8.442000000
H     0.901000000     3.270000000     8.018000000
H     1.487000000     2.637000000     9.262000000
O    -5.614000000     7.767000000     3.217000000
H    -4.855000000     7.340000000     3.615000000
H    -6.314000000     7.660000000     3.860000000
O     1.223000000     8.180000000     5.516000000
H     1.083000000     7.631000000     6.287000000
H     1.187000000     7.571000000     4.778000000
O     0.173000000     8.617000000     2.394000000
H     0.039000000     7.916000000     3.032000000
H     0.938000000     9.092000000     2.716000000
O    -1.559000000     5.550000000     0.643000000
H    -1.442000000     5.130000000     1.496000000
H    -0.679000000     5.829000000     0.392000000
O     2.094000000     5.778000000     2.752000000
H     1.495000000     5.263000000     3.292000000
H     1.604000000     5.951000000     1.948000000
O    -3.754000000     5.846000000     3.837000000
H    -3.145000000     6.566000000     3.673000000
H    -3.307000000     5.072000000     3.494000000
O    -2.277000000     6.080000000     8.866000000
H    -1.810000000     6.658000000     9.469000000
H    -1.663000000     5.366000000     8.694000000
O    -6.412000000     4.849000000     3.980000000
H    -5.501000000     5.081000000     3.800000000
H    -6.677000000     5.444000000     4.682000000
O     1.095000000     5.909000000     7.568000000
H     1.617000000     6.406000000     8.198000000
H     1.736000000     5.558000000     6.949000000
