215
-1442.92861
C     5.113000000    -0.693000000     2.141000000
H     5.651000000    -1.356000000     1.469000000
C     3.904000000    -1.230000000     2.704000000
C     3.378000000    -0.529000000     3.807000000
H     2.422000000    -0.871000000     4.195000000
C     3.236000000    -2.367000000     2.086000000
O     4.067000000    -2.978000000     1.048000000
H     2.400000000    -1.830000000     1.616000000
O     2.683000000    -3.300000000     3.006000000
C     1.447000000    -3.755000000     2.713000000
C     0.362000000    -3.249000000     3.446000000
H     0.641000000    -2.514000000     4.196000000
C    -0.989000000    -3.444000000     3.077000000
O    -1.938000000    -2.826000000     3.774000000
C    -1.324000000    -4.266000000     2.009000000
C    -2.754000000    -4.689000000     1.636000000
H    -2.761000000    -5.725000000     1.291000000
C    -3.378000000    -3.705000000     0.683000000
C    -3.246000000    -3.845000000    -0.666000000
H    -2.671000000    -4.681000000    -1.056000000
H    -3.274000000    -4.748000000     2.595000000
C    -0.252000000    -4.783000000     1.187000000
H    -0.413000000    -5.470000000     0.360000000
C     1.107000000    -4.543000000     1.541000000
C     2.152000000    -5.113000000     0.661000000
H     1.775000000    -6.048000000     0.242000000
H     2.966000000    -5.482000000     1.289000000
C     2.488000000    -4.119000000    -0.407000000
C     1.884000000    -4.252000000    -1.671000000
H     1.031000000    -4.889000000    -1.890000000
C     3.498000000    -3.154000000    -0.184000000
C     3.809000000    -2.272000000    -1.223000000
H     4.610000000    -1.551000000    -1.084000000
C     3.183000000    -2.351000000    -2.490000000
O     3.385000000    -1.323000000    -3.372000000
C     2.299000000    -0.384000000    -3.565000000
C     2.712000000     1.122000000    -3.558000000
C     2.002000000     2.160000000    -4.235000000
H     1.132000000     1.839000000    -4.803000000
C     3.855000000     1.487000000    -2.860000000
H     4.286000000     0.672000000    -2.284000000
O     1.569000000    -0.717000000    -4.761000000
H     1.591000000    -0.469000000    -2.727000000
C     2.175000000    -3.343000000    -2.703000000
C     1.600000000    -3.483000000    -4.072000000
H     1.555000000    -4.556000000    -4.270000000
H     2.341000000    -3.279000000    -4.848000000
C     0.270000000    -2.710000000    -4.221000000
C    -0.974000000    -3.274000000    -3.861000000
H    -0.883000000    -4.330000000    -3.620000000
C     0.343000000    -1.350000000    -4.434000000
C    -0.774000000    -0.560000000    -4.291000000
H    -0.712000000     0.518000000    -4.423000000
C    -2.055000000    -1.133000000    -3.981000000
O    -3.143000000    -0.246000000    -3.847000000
C    -3.356000000     0.230000000    -2.555000000
C    -3.742000000     1.716000000    -2.499000000
C    -3.154000000     2.584000000    -3.374000000
H    -2.551000000     2.148000000    -4.166000000
C    -4.382000000     2.204000000    -1.355000000
H    -4.708000000     1.535000000    -0.563000000
O    -4.376000000    -0.549000000    -1.884000000
H    -2.437000000     0.094000000    -1.967000000
C    -2.124000000    -2.503000000    -3.725000000
C    -3.437000000    -3.066000000    -3.100000000
H    -3.405000000    -4.149000000    -3.238000000
H    -4.274000000    -2.707000000    -3.704000000
C    -3.593000000    -2.813000000    -1.611000000
C    -4.082000000    -1.656000000    -1.085000000
C    -4.157000000    -1.439000000     0.271000000
H    -4.571000000    -0.503000000     0.637000000
C    -3.860000000    -2.488000000     1.152000000
O    -3.804000000    -2.093000000     2.474000000
C    -2.586000000    -1.674000000     3.121000000
H    -1.895000000    -1.369000000     2.321000000
C    -2.845000000    -0.437000000     3.916000000
C    -1.997000000    -0.175000000     5.001000000
H    -1.224000000    -0.873000000     5.313000000
C    -3.882000000     0.424000000     3.638000000
H    -4.467000000     0.216000000     2.745000000
C    -4.142000000     1.536000000     4.513000000
O    -5.206000000     2.387000000     4.307000000
C    -3.282000000     1.731000000     5.597000000
H    -3.504000000     2.466000000     6.367000000
C    -2.177000000     0.912000000     5.741000000
O    -1.244000000     1.144000000     6.730000000
C     0.100000000     0.811000000     6.818000000
C     0.944000000     1.087000000     5.809000000
H     0.497000000     1.513000000     4.915000000
C     0.595000000     0.398000000     8.046000000
H    -0.141000000     0.327000000     8.842000000
C     1.996000000     0.262000000     8.235000000
H     2.314000000    -0.163000000     9.184000000
C     2.832000000     0.539000000     7.138000000
H     3.917000000     0.581000000     7.169000000
C     2.316000000     1.010000000     5.968000000
O     3.145000000     1.534000000     4.980000000
C     3.869000000     0.695000000     4.186000000
C     5.034000000     1.161000000     3.574000000
H     5.314000000     2.165000000     3.884000000
C     5.654000000     0.516000000     2.516000000
O     6.843000000     0.972000000     1.920000000
C     6.970000000     1.144000000     0.529000000
C     6.026000000     1.997000000    -0.051000000
H     5.231000000     2.374000000     0.588000000
C     8.049000000     0.581000000    -0.207000000
H     8.800000000     0.002000000     0.325000000
C     8.181000000     0.958000000    -1.566000000
H     9.138000000     0.703000000    -2.014000000
C     7.258000000     1.798000000    -2.177000000
H     7.272000000     1.979000000    -3.249000000
C     6.149000000     2.280000000    -1.388000000
O     5.347000000     3.158000000    -1.990000000
C     4.248000000     2.833000000    -2.777000000
C     3.621000000     3.819000000    -3.472000000
H     4.082000000     4.803000000    -3.466000000
C     2.472000000     3.516000000    -4.126000000
O     1.758000000     4.515000000    -4.629000000
C     0.545000000     4.478000000    -5.251000000
C    -0.606000000     4.720000000    -4.455000000
H    -0.418000000     4.918000000    -3.403000000
C     0.380000000     4.134000000    -6.564000000
H     1.256000000     4.019000000    -7.197000000
C    -0.964000000     4.033000000    -7.038000000
H    -0.994000000     3.632000000    -8.048000000
C    -2.083000000     4.297000000    -6.252000000
H    -3.122000000     4.102000000    -6.507000000
C    -1.840000000     4.634000000    -4.971000000
O    -2.921000000     4.894000000    -4.149000000
C    -3.385000000     3.953000000    -3.261000000
C    -4.111000000     4.463000000    -2.218000000
H    -4.187000000     5.527000000    -2.009000000
C    -4.489000000     3.577000000    -1.200000000
O    -5.020000000     4.125000000    -0.029000000
C    -5.700000000     3.373000000     0.917000000
C    -7.091000000     3.138000000     0.710000000
H    -7.545000000     3.536000000    -0.194000000
C    -7.785000000     2.524000000     1.744000000
H    -8.815000000     2.238000000     1.544000000
C    -7.190000000     2.252000000     2.938000000
H    -7.788000000     1.797000000     3.723000000
C    -5.843000000     2.591000000     3.103000000
C    -5.030000000     3.122000000     2.074000000
H    -3.955000000     3.252000000     2.167000000
C    -0.387000000     1.307000000     1.685000000
H    -1.161000000     1.546000000     2.411000000
C    -0.520000000     0.299000000     0.722000000
H    -1.504000000    -0.135000000     0.565000000
C     0.588000000    -0.067000000    -0.111000000
H     0.601000000    -0.916000000    -0.855000000
C     1.774000000     0.625000000     0.093000000
H     2.597000000     0.460000000    -0.598000000
C     1.902000000     1.554000000     1.128000000
H     2.890000000     1.995000000     1.233000000
C     0.859000000     1.940000000     1.989000000
C     0.991000000     3.210000000     2.881000000
O     2.087000000     3.819000000     3.011000000
O     0.041000000     3.778000000     3.370000000
O     5.358000000     6.177000000     5.616000000
H     5.647000000     6.302000000     6.520000000
H     4.769000000     5.423000000     5.656000000
O     2.022000000     5.335000000    -0.529000000
H     2.760000000     5.163000000     0.056000000
H     2.223000000     6.183000000    -0.926000000
O    -2.739000000     5.286000000     7.808000000
H    -3.529000000     5.249000000     8.347000000
H    -3.042000000     5.082000000     6.924000000
O     3.927000000     8.521000000     6.232000000
H     3.233000000     8.127000000     5.705000000
H     4.620000000     7.861000000     6.249000000
O     0.194000000     3.546000000    -0.834000000
H     0.542000000     2.682000000    -0.614000000
H     0.922000000     4.146000000    -0.669000000
O     5.164000000     8.417000000     3.411000000
H     5.189000000     8.165000000     4.334000000
H     4.498000000     7.847000000     3.025000000
O    -1.189000000     7.938000000     2.498000000
H    -1.727000000     7.206000000     2.800000000
H    -0.389000000     7.526000000     2.169000000
O     6.699000000     4.834000000     3.605000000
H     7.474000000     4.478000000     4.040000000
H     6.365000000     5.494000000     4.213000000
O     2.321000000     7.108000000     4.582000000
H     1.829000000     6.887000000     3.792000000
H     2.702000000     6.277000000     4.867000000
O     0.000000000     4.918000000     5.775000000
H     0.076000000     4.367000000     4.996000000
H    -0.883000000     4.750000000     6.102000000
O     3.019000000     4.568000000     5.308000000
H     3.083000000     3.742000000     5.786000000
H     2.704000000     4.319000000     4.439000000
O     4.006000000     5.195000000     1.651000000
H     3.386000000     4.647000000     2.132000000
H     4.861000000     4.970000000     2.019000000
O    -3.773000000     5.387000000     5.262000000
H    -4.238000000     6.144000000     5.618000000
H    -4.417000000     4.951000000     4.704000000
O     2.688000000     8.162000000     1.539000000
H     2.229000000     7.376000000     1.834000000
H     2.425000000     8.263000000     0.624000000
O    -1.242000000     5.711000000     0.205000000
H    -1.285000000     5.576000000     1.151000000
H    -0.826000000     4.917000000    -0.131000000
O     0.900000000     6.167000000     2.049000000
H     1.093000000     5.353000000     2.515000000
H     0.571000000     5.882000000     1.196000000
O    -2.126000000     5.434000000     3.085000000
H    -2.622000000     5.369000000     3.902000000
H    -1.319000000     4.949000000     3.255000000
O    -0.520000000     7.643000000     6.063000000
H    -0.175000000     6.778000000     5.839000000
H    -0.844000000     7.547000000     6.958000000
O     2.116000000     5.017000000     8.516000000
H     1.493000000     4.531000000     9.057000000
H     1.597000000     5.328000000     7.775000000
