215
-1444.54109
C     4.831000000     0.002000000     1.550000000
H     4.910000000    -0.277000000     0.503000000
C     3.844000000    -0.667000000     2.221000000
C     3.543000000    -0.382000000     3.533000000
H     2.687000000    -0.871000000     3.993000000
C     3.236000000    -1.921000000     1.667000000
O     4.144000000    -2.529000000     0.688000000
H     2.240000000    -1.688000000     1.261000000
O     2.952000000    -2.916000000     2.661000000
C     1.730000000    -3.524000000     2.477000000
C     0.748000000    -3.031000000     3.274000000
H     1.050000000    -2.314000000     4.034000000
C    -0.571000000    -3.520000000     3.272000000
O    -1.568000000    -2.846000000     3.962000000
C    -0.922000000    -4.394000000     2.233000000
C    -2.352000000    -4.806000000     1.862000000
H    -2.346000000    -5.819000000     1.454000000
C    -3.061000000    -3.810000000     0.997000000
C    -3.021000000    -3.935000000    -0.384000000
H    -2.587000000    -4.850000000    -0.779000000
H    -2.897000000    -4.906000000     2.803000000
C     0.127000000    -4.879000000     1.367000000
H    -0.041000000    -5.646000000     0.616000000
C     1.403000000    -4.435000000     1.543000000
C     2.529000000    -4.911000000     0.620000000
H     2.312000000    -5.938000000     0.317000000
H     3.426000000    -4.997000000     1.237000000
C     2.673000000    -3.957000000    -0.590000000
C     2.018000000    -4.210000000    -1.801000000
H     1.499000000    -5.148000000    -1.979000000
C     3.502000000    -2.857000000    -0.479000000
C     3.640000000    -2.012000000    -1.530000000
H     4.247000000    -1.112000000    -1.470000000
C     2.938000000    -2.189000000    -2.677000000
O     3.097000000    -1.176000000    -3.521000000
C     2.006000000    -0.253000000    -3.744000000
C     2.482000000     1.161000000    -4.012000000
C     1.568000000     2.173000000    -4.287000000
H     0.561000000     1.953000000    -4.634000000
C     3.721000000     1.543000000    -3.496000000
H     4.375000000     0.763000000    -3.114000000
O     1.042000000    -0.662000000    -4.767000000
H     1.440000000    -0.140000000    -2.808000000
C     2.106000000    -3.296000000    -2.835000000
C     1.259000000    -3.471000000    -4.096000000
H     1.115000000    -4.543000000    -4.248000000
H     1.783000000    -3.158000000    -5.002000000
C    -0.026000000    -2.728000000    -3.996000000
C    -1.109000000    -3.384000000    -3.529000000
H    -0.997000000    -4.331000000    -3.007000000
C    -0.111000000    -1.415000000    -4.496000000
C    -1.277000000    -0.704000000    -4.428000000
H    -1.237000000     0.365000000    -4.618000000
C    -2.419000000    -1.336000000    -3.915000000
O    -3.490000000    -0.575000000    -3.562000000
C    -3.526000000    -0.029000000    -2.216000000
C    -3.761000000     1.422000000    -2.236000000
C    -3.735000000     2.225000000    -3.386000000
H    -3.421000000     1.740000000    -4.306000000
C    -4.172000000     2.066000000    -1.066000000
H    -4.340000000     1.537000000    -0.132000000
O    -4.490000000    -0.674000000    -1.459000000
H    -2.567000000    -0.210000000    -1.708000000
C    -2.336000000    -2.687000000    -3.441000000
C    -3.532000000    -3.322000000    -2.705000000
H    -3.680000000    -4.404000000    -2.729000000
H    -4.367000000    -2.953000000    -3.304000000
C    -3.524000000    -2.973000000    -1.268000000
C    -4.111000000    -1.778000000    -0.741000000
C    -4.176000000    -1.663000000     0.606000000
H    -4.646000000    -0.835000000     1.130000000
C    -3.603000000    -2.588000000     1.507000000
O    -3.479000000    -2.183000000     2.819000000
C    -2.202000000    -1.707000000     3.293000000
H    -1.630000000    -1.310000000     2.442000000
C    -2.485000000    -0.505000000     4.187000000
C    -1.568000000    -0.218000000     5.199000000
H    -0.700000000    -0.850000000     5.370000000
C    -3.607000000     0.309000000     4.064000000
H    -4.399000000     0.127000000     3.342000000
C    -3.613000000     1.468000000     4.821000000
O    -4.565000000     2.451000000     4.528000000
C    -2.661000000     1.773000000     5.828000000
H    -2.787000000     2.631000000     6.484000000
C    -1.618000000     0.934000000     6.061000000
O    -0.596000000     1.372000000     6.949000000
C     0.646000000     0.810000000     6.972000000
C     1.704000000     1.287000000     6.214000000
H     1.775000000     2.215000000     5.652000000
C     0.714000000    -0.422000000     7.706000000
H    -0.241000000    -0.857000000     7.989000000
C     1.942000000    -1.053000000     7.845000000
H     1.983000000    -1.907000000     8.515000000
C     3.057000000    -0.549000000     7.091000000
H     4.050000000    -0.977000000     7.197000000
C     2.945000000     0.626000000     6.330000000
O     4.002000000     1.019000000     5.510000000
C     4.143000000     0.737000000     4.140000000
C     5.148000000     1.447000000     3.480000000
H     5.634000000     2.229000000     4.059000000
C     5.505000000     1.116000000     2.141000000
O     6.515000000     1.845000000     1.480000000
C     6.792000000     1.811000000     0.146000000
C     5.895000000     2.411000000    -0.690000000
H     5.051000000     2.962000000    -0.282000000
C     7.949000000     1.087000000    -0.428000000
H     8.707000000     0.539000000     0.126000000
C     8.237000000     1.316000000    -1.802000000
H     9.226000000     0.968000000    -2.090000000
C     7.298000000     1.977000000    -2.638000000
H     7.507000000     2.106000000    -3.697000000
C     6.094000000     2.489000000    -2.065000000
O     5.236000000     3.278000000    -2.815000000
C     4.045000000     2.873000000    -3.310000000
C     3.181000000     3.833000000    -3.728000000
H     3.503000000     4.869000000    -3.650000000
C     1.896000000     3.500000000    -4.191000000
O     0.875000000     4.451000000    -4.064000000
C    -0.237000000     4.530000000    -4.917000000
C    -1.502000000     4.214000000    -4.362000000
H    -1.612000000     3.953000000    -3.312000000
C    -0.212000000     4.861000000    -6.296000000
H     0.771000000     5.072000000    -6.711000000
C    -1.397000000     4.907000000    -7.076000000
H    -1.433000000     5.097000000    -8.146000000
C    -2.670000000     4.722000000    -6.467000000
H    -3.579000000     4.835000000    -7.052000000
C    -2.693000000     4.444000000    -5.091000000
O    -3.962000000     4.261000000    -4.570000000
C    -4.081000000     3.541000000    -3.424000000
C    -4.512000000     4.183000000    -2.281000000
H    -4.806000000     5.229000000    -2.303000000
C    -4.512000000     3.408000000    -1.121000000
O    -4.986000000     4.015000000     0.019000000
C    -5.489000000     3.379000000     1.098000000
C    -6.788000000     2.848000000     1.000000000
H    -7.291000000     3.149000000     0.085000000
C    -7.267000000     2.104000000     2.085000000
H    -8.240000000     1.622000000     2.043000000
C    -6.556000000     2.034000000     3.269000000
H    -7.036000000     1.571000000     4.127000000
C    -5.299000000     2.571000000     3.393000000
C    -4.710000000     3.149000000     2.261000000
H    -3.753000000     3.654000000     2.367000000
C    -0.632000000     1.797000000     1.820000000
H    -1.501000000     2.241000000     2.297000000
C    -0.842000000     0.936000000     0.755000000
H    -1.845000000     0.576000000     0.541000000
C     0.211000000     0.567000000    -0.169000000
H     0.037000000    -0.074000000    -0.936000000
C     1.471000000     1.086000000     0.067000000
H     2.338000000     0.734000000    -0.486000000
C     1.676000000     1.945000000     1.162000000
H     2.718000000     2.245000000     1.242000000
C     0.651000000     2.363000000     2.005000000
C     0.857000000     3.319000000     3.175000000
O     1.952000000     3.488000000     3.580000000
O    -0.108000000     3.921000000     3.597000000
O     6.392000000     5.676000000     1.616000000
H     5.625000000     5.108000000     1.534000000
H     6.350000000     6.008000000     2.512000000
O     2.310000000     5.161000000    -0.489000000
H     2.893000000     5.888000000    -0.273000000
H     1.780000000     5.037000000     0.298000000
O     3.726000000     7.609000000     0.363000000
H     4.450000000     7.776000000    -0.241000000
H     3.215000000     8.419000000     0.354000000
O     3.820000000     4.687000000     8.740000000
H     3.830000000     4.293000000     7.868000000
H     2.892000000     4.744000000     8.966000000
O     2.901000000     7.263000000     8.222000000
H     2.107000000     7.098000000     7.713000000
H     3.215000000     6.392000000     8.466000000
O    -0.501000000     3.929000000    -0.681000000
H    -0.245000000     3.157000000    -0.176000000
H     0.300000000     4.197000000    -1.131000000
O     4.591000000     7.291000000     5.884000000
H     3.900000000     7.805000000     6.301000000
H     4.606000000     6.468000000     6.373000000
O    -2.849000000     7.617000000     4.818000000
H    -3.418000000     8.124000000     4.239000000
H    -2.381000000     7.021000000     4.232000000
O     2.052000000     6.516000000     4.076000000
H     1.809000000     6.580000000     5.000000000
H     1.963000000     5.586000000     3.869000000
O     0.526000000     7.131000000    -1.690000000
H    -0.335000000     7.216000000    -1.281000000
H     0.836000000     6.267000000    -1.418000000
O    -0.133000000     4.038000000     6.414000000
H    -0.084000000     3.952000000     5.462000000
H    -0.502000000     3.206000000     6.711000000
O     3.592000000     4.148000000     5.965000000
H     4.464000000     3.840000000     5.717000000
H     3.005000000     3.754000000     5.320000000
O     3.910000000     4.629000000     2.359000000
H     3.202000000     4.103000000     2.730000000
H     3.795000000     5.496000000     2.748000000
O     2.228000000     8.968000000     2.802000000
H     2.137000000     8.099000000     3.194000000
H     1.332000000     9.232000000     2.594000000
O    -2.386000000     5.745000000    -0.698000000
H    -2.691000000     5.965000000     0.182000000
H    -1.900000000     4.928000000    -0.586000000
O     0.320000000     6.834000000     1.191000000
H     0.041000000     7.668000000     1.568000000
H     1.058000000     7.062000000     0.626000000
O    -1.372000000     6.133000000     3.202000000
H    -0.820000000     6.351000000     2.451000000
H    -0.987000000     5.331000000     3.557000000
O     0.882000000     6.771000000     6.546000000
H     0.446000000     5.966000000     6.266000000
H     0.166000000     7.364000000     6.773000000
O     1.231000000     4.572000000     8.701000000
H     0.312000000     4.410000000     8.914000000
H     1.267000000     4.525000000     7.746000000
