215
-1473.38650
C     5.012000000     0.144000000     2.140000000
H     5.710000000    -0.303000000     1.437000000
C     3.850000000    -0.452000000     2.436000000
C     3.015000000     0.157000000     3.394000000
H     2.084000000    -0.361000000     3.613000000
C     3.323000000    -1.784000000     1.775000000
O     4.353000000    -2.378000000     1.009000000
H     2.536000000    -1.381000000     1.120000000
O     2.829000000    -2.698000000     2.714000000
C     1.662000000    -3.296000000     2.491000000
C     0.612000000    -2.854000000     3.267000000
H     0.780000000    -2.158000000     4.085000000
C    -0.663000000    -3.364000000     2.995000000
O    -1.801000000    -2.862000000     3.688000000
C    -0.833000000    -4.317000000     2.021000000
C    -2.215000000    -4.919000000     1.711000000
H    -2.133000000    -5.907000000     1.255000000
C    -2.978000000    -3.983000000     0.734000000
C    -2.786000000    -4.232000000    -0.643000000
H    -2.318000000    -5.161000000    -0.959000000
H    -2.717000000    -4.928000000     2.681000000
C     0.235000000    -4.763000000     1.247000000
H     0.094000000    -5.509000000     0.469000000
C     1.492000000    -4.196000000     1.478000000
C     2.669000000    -4.645000000     0.583000000
H     2.412000000    -5.590000000     0.099000000
H     3.475000000    -4.909000000     1.270000000
C     3.040000000    -3.751000000    -0.542000000
C     2.505000000    -3.934000000    -1.811000000
H     1.791000000    -4.737000000    -1.975000000
C     3.961000000    -2.677000000    -0.324000000
C     4.354000000    -1.901000000    -1.390000000
H     4.984000000    -1.025000000    -1.269000000
C     3.678000000    -2.012000000    -2.606000000
O     3.727000000    -0.985000000    -3.523000000
C     2.539000000    -0.146000000    -3.556000000
C     3.019000000     1.289000000    -3.631000000
C     2.062000000     2.249000000    -3.988000000
H     1.067000000     1.922000000    -4.280000000
C     4.277000000     1.764000000    -3.116000000
H     4.847000000     1.120000000    -2.451000000
O     1.641000000    -0.482000000    -4.660000000
H     1.905000000    -0.251000000    -2.664000000
C     2.819000000    -3.109000000    -2.857000000
C     2.089000000    -3.265000000    -4.166000000
H     1.898000000    -4.332000000    -4.296000000
H     2.679000000    -3.018000000    -5.051000000
C     0.707000000    -2.701000000    -4.192000000
C    -0.425000000    -3.418000000    -3.755000000
H    -0.336000000    -4.484000000    -3.562000000
C     0.570000000    -1.345000000    -4.430000000
C    -0.640000000    -0.691000000    -4.265000000
H    -0.721000000     0.341000000    -4.597000000
C    -1.766000000    -1.438000000    -3.959000000
O    -2.920000000    -0.728000000    -3.814000000
C    -3.415000000    -0.241000000    -2.491000000
C    -4.020000000     1.204000000    -2.473000000
C    -3.450000000     2.178000000    -3.227000000
H    -2.546000000     1.928000000    -3.776000000
C    -5.158000000     1.529000000    -1.694000000
H    -5.647000000     0.843000000    -1.007000000
O    -4.349000000    -1.168000000    -2.000000000
H    -2.486000000    -0.287000000    -1.904000000
C    -1.675000000    -2.797000000    -3.614000000
C    -2.887000000    -3.603000000    -3.053000000
H    -2.619000000    -4.655000000    -3.170000000
H    -3.835000000    -3.453000000    -3.574000000
C    -3.206000000    -3.343000000    -1.580000000
C    -3.927000000    -2.201000000    -1.153000000
C    -4.182000000    -2.009000000     0.214000000
H    -4.842000000    -1.201000000     0.520000000
C    -3.668000000    -2.887000000     1.199000000
O    -3.763000000    -2.576000000     2.566000000
C    -2.626000000    -1.854000000     3.001000000
H    -2.094000000    -1.450000000     2.127000000
C    -2.950000000    -0.699000000     3.961000000
C    -2.233000000    -0.485000000     5.112000000
H    -1.428000000    -1.156000000     5.405000000
C    -3.905000000     0.205000000     3.486000000
H    -4.414000000    -0.025000000     2.553000000
C    -4.065000000     1.377000000     4.229000000
O    -4.861000000     2.414000000     3.721000000
C    -3.393000000     1.613000000     5.463000000
H    -3.576000000     2.529000000     6.018000000
C    -2.455000000     0.682000000     5.867000000
O    -1.671000000     0.988000000     6.946000000
C    -0.334000000     0.979000000     7.041000000
C     0.397000000     1.360000000     5.884000000
H    -0.166000000     1.708000000     5.022000000
C     0.352000000     0.580000000     8.248000000
H    -0.220000000     0.181000000     9.082000000
C     1.752000000     0.365000000     8.138000000
H     2.302000000     0.110000000     9.040000000
C     2.446000000     0.739000000     6.994000000
H     3.531000000     0.719000000     7.068000000
C     1.770000000     1.215000000     5.889000000
O     2.542000000     1.887000000     4.959000000
C     3.356000000     1.342000000     4.084000000
C     4.452000000     2.065000000     3.581000000
H     4.769000000     3.017000000     3.999000000
C     5.327000000     1.445000000     2.640000000
O     6.521000000     1.991000000     2.183000000
C     6.836000000     2.147000000     0.848000000
C     5.967000000     2.722000000    -0.109000000
H     4.980000000     3.087000000     0.163000000
C     8.066000000     1.691000000     0.416000000
H     8.688000000     1.179000000     1.145000000
C     8.479000000     1.803000000    -0.897000000
H     9.435000000     1.345000000    -1.140000000
C     7.656000000     2.403000000    -1.818000000
H     7.891000000     2.543000000    -2.870000000
C     6.415000000     2.814000000    -1.429000000
O     5.673000000     3.585000000    -2.301000000
C     4.516000000     3.172000000    -2.913000000
C     3.623000000     4.120000000    -3.518000000
H     3.937000000     5.159000000    -3.565000000
C     2.410000000     3.584000000    -4.002000000
O     1.479000000     4.573000000    -4.378000000
C     0.232000000     4.319000000    -4.899000000
C    -0.908000000     4.573000000    -4.183000000
H    -0.859000000     5.110000000    -3.239000000
C     0.192000000     3.680000000    -6.085000000
H     1.117000000     3.345000000    -6.546000000
C    -1.016000000     3.303000000    -6.641000000
H    -1.059000000     2.734000000    -7.566000000
C    -2.216000000     3.544000000    -5.961000000
H    -3.122000000     3.137000000    -6.403000000
C    -2.140000000     4.204000000    -4.708000000
O    -3.251000000     4.459000000    -3.964000000
C    -3.948000000     3.456000000    -3.265000000
C    -5.127000000     3.793000000    -2.598000000
H    -5.450000000     4.831000000    -2.627000000
C    -5.631000000     2.829000000    -1.707000000
O    -6.616000000     3.238000000    -0.789000000
C    -6.709000000     2.729000000     0.541000000
C    -7.915000000     2.107000000     0.876000000
H    -8.661000000     1.987000000     0.095000000
C    -8.057000000     1.561000000     2.174000000
H    -9.016000000     1.086000000     2.362000000
C    -7.002000000     1.604000000     3.098000000
H    -7.077000000     1.213000000     4.109000000
C    -5.806000000     2.242000000     2.718000000
C    -5.661000000     2.832000000     1.426000000
H    -4.776000000     3.432000000     1.232000000
C    -0.098000000     1.546000000     1.570000000
H    -0.953000000     1.588000000     2.240000000
C     0.214000000     0.434000000     0.754000000
H    -0.438000000    -0.433000000     0.818000000
C     1.371000000     0.404000000    -0.023000000
H     1.434000000    -0.530000000    -0.547000000
C     2.190000000     1.548000000    -0.039000000
H     3.059000000     1.538000000    -0.692000000
C     1.891000000     2.589000000     0.758000000
H     2.700000000     3.315000000     0.801000000
C     0.778000000     2.612000000     1.588000000
C     0.482000000     3.774000000     2.527000000
O     1.212000000     4.734000000     2.414000000
O    -0.428000000     3.808000000     3.379000000
O     4.370000000     5.530000000     4.994000000
H     4.199000000     4.848000000     5.644000000
H     5.023000000     6.095000000     5.407000000
O     1.724000000     6.055000000    -1.301000000
H     1.648000000     6.351000000    -2.208000000
H     2.557000000     6.416000000    -1.000000000
O     4.137000000     7.546000000    -0.370000000
H     4.935000000     7.154000000    -0.014000000
H     3.995000000     8.327000000     0.166000000
O    -0.067000000     3.620000000    -1.421000000
H     0.045000000     3.175000000    -0.581000000
H     0.809000000     3.934000000    -1.645000000
O     4.115000000     8.146000000     3.658000000
H     4.156000000     7.201000000     3.803000000
H     3.310000000     8.277000000     3.157000000
O     6.186000000     5.846000000     0.748000000
H     5.415000000     5.470000000     1.173000000
H     6.924000000     5.359000000     1.114000000
O    -1.946000000     6.635000000     2.988000000
H    -1.276000000     6.476000000     2.322000000
H    -2.116000000     5.773000000     3.367000000
O     1.554000000     8.412000000     2.093000000
H     1.032000000     9.097000000     1.675000000
H     1.786000000     7.818000000     1.379000000
O    -0.564000000     4.203000000     6.403000000
H    -0.632000000     3.250000000     6.447000000
H    -0.378000000     4.388000000     5.482000000
O     1.452000000     5.798000000     4.897000000
H     1.438000000     5.468000000     3.998000000
H     2.147000000     5.299000000     5.325000000
O     3.964000000     4.868000000     2.247000000
H     3.009000000     4.933000000     2.259000000
H     4.230000000     5.075000000     3.143000000
O     1.376000000     8.676000000     5.635000000
H     1.289000000     7.787000000     5.293000000
H     0.634000000     8.778000000     6.230000000
O    -1.475000000     8.355000000     0.422000000
H    -1.308000000     8.910000000     1.183000000
H    -0.968000000     7.560000000     0.590000000
O    -2.499000000     4.501000000    -0.585000000
H    -2.008000000     5.237000000    -0.220000000
H    -1.939000000     4.162000000    -1.284000000
O     0.000000000     6.310000000     0.887000000
H     0.427000000     5.733000000     1.521000000
H     0.594000000     6.322000000     0.137000000
O    -4.425000000     7.400000000     3.342000000
H    -4.803000000     6.556000000     3.590000000
H    -3.480000000     7.254000000     3.361000000
O    -2.888000000     4.376000000     3.953000000
H    -3.543000000     3.679000000     3.907000000
H    -2.050000000     3.923000000     3.863000000
O    -1.158000000     7.035000000     6.164000000
H    -0.971000000     6.928000000     5.231000000
H    -1.235000000     6.141000000     6.497000000
O     2.947000000     4.128000000     6.788000000
H     2.788000000     4.329000000     7.710000000
H     2.262000000     3.500000000     6.558000000
