215
-1450.77214
C     4.884000000    -0.622000000     2.104000000
H     5.059000000    -0.732000000     1.036000000
C     3.969000000    -1.528000000     2.690000000
C     3.686000000    -1.417000000     4.038000000
H     3.048000000    -2.175000000     4.483000000
C     3.147000000    -2.429000000     1.759000000
O     3.974000000    -2.891000000     0.637000000
H     2.282000000    -1.963000000     1.265000000
O     2.682000000    -3.634000000     2.400000000
C     1.407000000    -4.015000000     2.172000000
C     0.451000000    -3.459000000     2.948000000
H     0.690000000    -2.756000000     3.741000000
C    -0.886000000    -3.729000000     2.707000000
O    -1.702000000    -3.010000000     3.500000000
C    -1.276000000    -4.575000000     1.686000000
C    -2.733000000    -4.787000000     1.209000000
H    -2.865000000    -5.754000000     0.720000000
C    -3.266000000    -3.732000000     0.333000000
C    -3.221000000    -3.869000000    -1.054000000
H    -2.898000000    -4.822000000    -1.466000000
H    -3.336000000    -4.903000000     2.112000000
C    -0.261000000    -5.015000000     0.759000000
H    -0.517000000    -5.566000000    -0.142000000
C     1.100000000    -4.686000000     1.015000000
C     2.156000000    -5.083000000     0.037000000
H     1.763000000    -5.934000000    -0.522000000
H     3.038000000    -5.410000000     0.592000000
C     2.570000000    -3.980000000    -0.986000000
C     1.990000000    -4.005000000    -2.239000000
H     1.204000000    -4.744000000    -2.371000000
C     3.402000000    -3.029000000    -0.631000000
C     3.825000000    -2.061000000    -1.549000000
H     4.569000000    -1.303000000    -1.315000000
C     3.234000000    -2.031000000    -2.841000000
O     3.376000000    -0.861000000    -3.623000000
C     2.255000000     0.027000000    -3.682000000
C     2.779000000     1.487000000    -3.558000000
C     2.219000000     2.493000000    -4.353000000
H     1.441000000     2.232000000    -5.066000000
C     3.759000000     1.848000000    -2.633000000
H     4.117000000     1.142000000    -1.888000000
O     1.419000000    -0.144000000    -4.911000000
H     1.685000000    -0.151000000    -2.758000000
C     2.318000000    -3.026000000    -3.209000000
C     1.592000000    -2.966000000    -4.586000000
H     1.487000000    -4.035000000    -4.783000000
H     2.245000000    -2.489000000    -5.319000000
C     0.254000000    -2.248000000    -4.526000000
C    -0.875000000    -2.971000000    -4.115000000
H    -0.971000000    -4.044000000    -3.970000000
C     0.201000000    -0.856000000    -4.723000000
C    -0.954000000    -0.179000000    -4.480000000
H    -0.969000000     0.906000000    -4.535000000
C    -2.111000000    -0.805000000    -4.136000000
O    -3.193000000     0.011000000    -3.925000000
C    -3.464000000     0.371000000    -2.567000000
C    -3.743000000     1.903000000    -2.333000000
C    -2.831000000     2.875000000    -2.743000000
H    -1.933000000     2.574000000    -3.277000000
C    -4.783000000     2.272000000    -1.452000000
H    -5.470000000     1.512000000    -1.087000000
O    -4.461000000    -0.564000000    -2.077000000
H    -2.528000000     0.204000000    -2.013000000
C    -2.085000000    -2.220000000    -3.887000000
C    -3.391000000    -2.928000000    -3.412000000
H    -3.331000000    -3.988000000    -3.668000000
H    -4.260000000    -2.525000000    -3.936000000
C    -3.563000000    -2.805000000    -1.906000000
C    -4.081000000    -1.680000000    -1.298000000
C    -4.098000000    -1.545000000     0.125000000
H    -4.426000000    -0.577000000     0.495000000
C    -3.679000000    -2.517000000     0.911000000
O    -3.655000000    -2.301000000     2.273000000
C    -2.401000000    -1.949000000     2.847000000
H    -1.767000000    -1.611000000     2.014000000
C    -2.550000000    -0.578000000     3.616000000
C    -1.494000000    -0.275000000     4.516000000
H    -0.645000000    -0.950000000     4.579000000
C    -3.622000000     0.266000000     3.352000000
H    -4.349000000     0.016000000     2.584000000
C    -3.667000000     1.396000000     4.183000000
O    -4.842000000     2.162000000     4.163000000
C    -2.748000000     1.648000000     5.182000000
H    -2.859000000     2.479000000     5.874000000
C    -1.571000000     0.857000000     5.297000000
O    -0.593000000     1.224000000     6.156000000
C     0.388000000     0.264000000     6.481000000
C     1.722000000     0.438000000     6.146000000
H     1.922000000     1.403000000     5.688000000
C     0.006000000    -0.839000000     7.183000000
H    -1.051000000    -1.009000000     7.369000000
C     0.975000000    -1.729000000     7.639000000
H     0.721000000    -2.624000000     8.201000000
C     2.314000000    -1.605000000     7.173000000
H     3.073000000    -2.293000000     7.537000000
C     2.696000000    -0.479000000     6.465000000
O     3.979000000    -0.287000000     6.166000000
C     4.348000000    -0.473000000     4.852000000
C     5.255000000     0.442000000     4.274000000
H     5.837000000     1.090000000     4.923000000
C     5.646000000     0.259000000     2.903000000
O     6.632000000     1.066000000     2.419000000
C     6.706000000     1.409000000     1.087000000
C     5.850000000     2.383000000     0.636000000
H     5.217000000     2.857000000     1.383000000
C     7.536000000     0.704000000     0.212000000
H     8.214000000    -0.017000000     0.662000000
C     7.513000000     1.004000000    -1.154000000
H     8.184000000     0.407000000    -1.765000000
C     6.705000000     1.999000000    -1.659000000
H     6.663000000     2.331000000    -2.693000000
C     5.811000000     2.614000000    -0.806000000
O     4.916000000     3.486000000    -1.369000000
C     4.158000000     3.196000000    -2.439000000
C     3.634000000     4.208000000    -3.324000000
H     3.981000000     5.237000000    -3.268000000
C     2.651000000     3.824000000    -4.202000000
O     2.031000000     4.810000000    -4.992000000
C     0.691000000     5.150000000    -4.878000000
C     0.073000000     5.035000000    -3.706000000
H     0.683000000     4.943000000    -2.811000000
C     0.001000000     5.358000000    -6.084000000
H     0.318000000     5.169000000    -7.106000000
C    -1.314000000     5.798000000    -5.987000000
H    -1.771000000     6.306000000    -6.832000000
C    -1.958000000     5.850000000    -4.775000000
H    -2.967000000     6.253000000    -4.772000000
C    -1.304000000     5.322000000    -3.641000000
O    -1.928000000     5.167000000    -2.447000000
C    -2.911000000     4.209000000    -2.253000000
C    -4.004000000     4.511000000    -1.483000000
H    -4.030000000     5.523000000    -1.089000000
C    -4.926000000     3.625000000    -1.067000000
O    -5.711000000     4.041000000    -0.105000000
C    -6.091000000     3.294000000     0.944000000
C    -7.374000000     2.879000000     1.015000000
H    -8.039000000     3.019000000     0.167000000
C    -7.835000000     2.131000000     2.138000000
H    -8.890000000     1.870000000     2.160000000
C    -6.938000000     1.830000000     3.187000000
H    -7.340000000     1.328000000     4.064000000
C    -5.657000000     2.303000000     3.131000000
C    -5.176000000     3.037000000     1.992000000
H    -4.195000000     3.505000000     1.962000000
C    -1.012000000     2.250000000     1.531000000
H    -1.749000000     2.957000000     1.903000000
C    -1.301000000     1.400000000     0.439000000
H    -2.310000000     1.416000000     0.035000000
C    -0.334000000     0.536000000    -0.103000000
H    -0.447000000    -0.050000000    -1.045000000
C     0.867000000     0.411000000     0.596000000
H     1.584000000    -0.369000000     0.350000000
C     1.229000000     1.268000000     1.656000000
H     2.203000000     1.145000000     2.123000000
C     0.260000000     2.157000000     2.187000000
C     0.642000000     2.962000000     3.347000000
O     1.831000000     3.012000000     3.679000000
O    -0.250000000     3.578000000     3.906000000
O     6.310000000     4.176000000     3.536000000
H     7.076000000     3.898000000     4.038000000
H     5.564000000     3.933000000     4.084000000
O     0.977000000     3.387000000    -0.655000000
H     1.749000000     2.822000000    -0.661000000
H     0.301000000     2.865000000    -0.223000000
O    -0.642000000     1.446000000     9.604000000
H     0.306000000     1.408000000     9.474000000
H    -0.941000000     2.111000000     8.984000000
O    -3.950000000     7.051000000     4.094000000
H    -3.344000000     6.534000000     3.562000000
H    -3.507000000     7.891000000     4.213000000
O    -0.481000000     5.699000000     0.221000000
H    -0.205000000     5.338000000    -0.621000000
H    -1.001000000     6.469000000    -0.006000000
O    -0.382000000     6.436000000     7.954000000
H    -0.616000000     5.623000000     7.506000000
H    -0.512000000     6.244000000     8.883000000
O     5.715000000     5.980000000     1.414000000
H     6.098000000     5.332000000     2.006000000
H     4.771000000     5.889000000     1.538000000
O    -1.468000000     5.155000000     5.733000000
H    -1.083000000     4.651000000     5.016000000
H    -1.406000000     6.066000000     5.445000000
O     0.822000000     3.567000000     6.660000000
H     0.845000000     3.582000000     5.703000000
H    -0.040000000     3.210000000     6.873000000
O     2.910000000     2.805000000     8.082000000
H     2.135000000     3.149000000     7.637000000
H     2.573000000     2.107000000     8.644000000
O     3.044000000     5.151000000     2.333000000
H     2.388000000     4.457000000     2.406000000
H     3.740000000     4.887000000     2.935000000
O     4.021000000     3.937000000     4.972000000
H     3.404000000     3.550000000     4.350000000
H     3.791000000     3.543000000     5.813000000
O     2.964000000     6.620000000     5.341000000
H     3.567000000     5.879000000     5.394000000
H     2.786000000     6.850000000     6.253000000
O    -0.627000000     8.839000000     2.487000000
H    -0.337000000     8.006000000     2.860000000
H    -1.210000000     9.208000000     3.151000000
O    -2.195000000     5.594000000     2.561000000
H    -1.820000000     5.550000000     1.681000000
H    -1.723000000     4.924000000     3.056000000
O     2.103000000     7.212000000     0.533000000
H     2.623000000     6.810000000     1.229000000
H     1.626000000     6.482000000     0.138000000
O     0.666000000     6.767000000     3.883000000
H     0.760000000     5.916000000     3.454000000
H     1.475000000     6.874000000     4.383000000
O    -1.608000000     3.704000000     8.180000000
H    -2.029000000     4.303000000     8.797000000
H    -1.720000000     4.121000000     7.326000000
O    -4.083000000     2.377000000     8.169000000
H    -3.182000000     2.216000000     7.889000000
H    -4.027000000     2.458000000     9.121000000
