215
-1451.05738
C     4.576000000    -0.087000000     2.503000000
H     5.180000000    -0.470000000     1.685000000
C     3.363000000    -0.738000000     2.884000000
C     2.566000000    -0.178000000     3.887000000
H     1.621000000    -0.632000000     4.175000000
C     2.916000000    -2.007000000     2.107000000
O     3.937000000    -2.512000000     1.220000000
H     2.013000000    -1.700000000     1.559000000
O     2.403000000    -3.002000000     3.060000000
C     1.244000000    -3.688000000     2.734000000
C     0.166000000    -3.335000000     3.472000000
H     0.307000000    -2.749000000     4.376000000
C    -1.118000000    -3.638000000     3.033000000
O    -2.162000000    -3.072000000     3.684000000
C    -1.185000000    -4.483000000     1.848000000
C    -2.543000000    -4.931000000     1.269000000
H    -2.492000000    -5.923000000     0.814000000
C    -2.989000000    -3.870000000     0.310000000
C    -2.615000000    -4.048000000    -1.057000000
H    -1.970000000    -4.896000000    -1.273000000
H    -3.248000000    -4.996000000     2.100000000
C    -0.078000000    -4.845000000     1.149000000
H    -0.240000000    -5.455000000     0.265000000
C     1.207000000    -4.401000000     1.498000000
C     2.458000000    -4.883000000     0.725000000
H     2.157000000    -5.871000000     0.370000000
H     3.308000000    -5.242000000     1.309000000
C     2.873000000    -3.899000000    -0.426000000
C     2.426000000    -4.043000000    -1.699000000
H     1.795000000    -4.885000000    -1.971000000
C     3.693000000    -2.878000000    -0.086000000
C     4.014000000    -1.932000000    -1.046000000
H     4.551000000    -1.014000000    -0.821000000
C     3.561000000    -2.025000000    -2.328000000
O     3.812000000    -1.045000000    -3.228000000
C     2.726000000    -0.121000000    -3.458000000
C     3.226000000     1.310000000    -3.302000000
C     2.562000000     2.394000000    -3.854000000
H     1.645000000     2.222000000    -4.411000000
C     4.392000000     1.629000000    -2.607000000
H     4.873000000     0.832000000    -2.045000000
O     1.981000000    -0.374000000    -4.637000000
H     2.045000000    -0.225000000    -2.601000000
C     2.752000000    -3.075000000    -2.698000000
C     2.197000000    -3.172000000    -4.107000000
H     2.112000000    -4.225000000    -4.382000000
H     3.013000000    -2.733000000    -4.684000000
C     0.855000000    -2.459000000    -4.156000000
C    -0.317000000    -3.127000000    -3.897000000
H    -0.273000000    -4.207000000    -3.777000000
C     0.801000000    -1.119000000    -4.528000000
C    -0.404000000    -0.458000000    -4.654000000
H    -0.269000000     0.596000000    -4.884000000
C    -1.577000000    -1.084000000    -4.214000000
O    -2.667000000    -0.371000000    -4.051000000
C    -3.135000000     0.022000000    -2.730000000
C    -3.585000000     1.461000000    -2.692000000
C    -2.750000000     2.403000000    -3.277000000
H    -1.843000000     2.187000000    -3.836000000
C    -4.658000000     1.874000000    -1.852000000
H    -5.235000000     1.123000000    -1.319000000
O    -4.215000000    -0.952000000    -2.310000000
H    -2.251000000    -0.116000000    -2.091000000
C    -1.559000000    -2.444000000    -3.835000000
C    -2.773000000    -3.150000000    -3.428000000
H    -2.736000000    -4.231000000    -3.579000000
H    -3.624000000    -2.883000000    -4.058000000
C    -3.031000000    -3.071000000    -1.974000000
C    -3.807000000    -1.981000000    -1.536000000
C    -4.209000000    -1.881000000    -0.210000000
H    -4.870000000    -1.068000000     0.081000000
C    -3.739000000    -2.777000000     0.708000000
O    -3.916000000    -2.561000000     2.040000000
C    -2.841000000    -1.990000000     2.824000000
H    -2.031000000    -1.651000000     2.162000000
C    -3.231000000    -0.770000000     3.711000000
C    -2.489000000    -0.333000000     4.871000000
H    -1.701000000    -1.000000000     5.209000000
C    -4.304000000     0.059000000     3.319000000
H    -4.836000000    -0.200000000     2.407000000
C    -4.567000000     1.273000000     3.928000000
O    -5.546000000     2.137000000     3.426000000
C    -3.850000000     1.635000000     5.042000000
H    -4.217000000     2.480000000     5.618000000
C    -2.836000000     0.856000000     5.584000000
O    -2.225000000     1.210000000     6.804000000
C    -0.900000000     0.974000000     6.982000000
C     0.028000000     1.328000000     6.008000000
H    -0.405000000     1.775000000     5.116000000
C    -0.381000000     0.537000000     8.215000000
H    -1.000000000     0.332000000     9.085000000
C     1.022000000     0.517000000     8.503000000
H     1.461000000     0.328000000     9.480000000
C     1.870000000     0.804000000     7.463000000
H     2.886000000     1.058000000     7.757000000
C     1.344000000     1.216000000     6.217000000
O     2.264000000     1.772000000     5.327000000
C     2.964000000     1.079000000     4.402000000
C     4.144000000     1.726000000     3.963000000
H     4.471000000     2.690000000     4.344000000
C     4.987000000     1.096000000     3.046000000
O     6.216000000     1.683000000     2.674000000
C     6.717000000     1.587000000     1.378000000
C     5.985000000     2.244000000     0.355000000
H     4.986000000     2.599000000     0.597000000
C     7.996000000     1.106000000     1.216000000
H     8.566000000     0.708000000     2.051000000
C     8.537000000     1.294000000    -0.053000000
H     9.522000000     0.876000000    -0.245000000
C     7.879000000     1.924000000    -1.064000000
H     8.271000000     1.997000000    -2.075000000
C     6.536000000     2.332000000    -0.931000000
O     6.056000000     3.106000000    -1.940000000
C     4.875000000     2.923000000    -2.569000000
C     4.149000000     3.948000000    -3.097000000
H     4.582000000     4.945000000    -3.060000000
C     2.966000000     3.693000000    -3.732000000
O     2.348000000     4.685000000    -4.483000000
C     1.083000000     4.535000000    -4.991000000
C     0.060000000     4.779000000    -4.084000000
H     0.167000000     5.241000000    -3.107000000
C     0.855000000     4.136000000    -6.307000000
H     1.685000000     3.896000000    -6.966000000
C    -0.434000000     3.948000000    -6.767000000
H    -0.576000000     3.570000000    -7.777000000
C    -1.533000000     4.184000000    -5.930000000
H    -2.547000000     4.129000000    -6.316000000
C    -1.259000000     4.568000000    -4.564000000
O    -2.326000000     4.762000000    -3.817000000
C    -3.072000000     3.792000000    -3.158000000
C    -4.248000000     4.165000000    -2.557000000
H    -4.589000000     5.197000000    -2.555000000
C    -4.993000000     3.238000000    -1.854000000
O    -6.101000000     3.632000000    -1.088000000
C    -6.601000000     2.925000000    -0.009000000
C    -7.755000000     2.132000000    -0.078000000
H    -8.403000000     2.012000000    -0.942000000
C    -8.080000000     1.274000000     0.987000000
H    -8.829000000     0.492000000     0.894000000
C    -7.299000000     1.185000000     2.117000000
H    -7.560000000     0.460000000     2.884000000
C    -6.269000000     2.065000000     2.275000000
C    -5.833000000     2.816000000     1.175000000
H    -5.005000000     3.470000000     1.439000000
C    -1.105000000     1.211000000     1.577000000
H    -2.153000000     1.366000000     1.823000000
C    -0.743000000     0.186000000     0.732000000
H    -1.545000000    -0.346000000     0.228000000
C     0.587000000     0.109000000     0.243000000
H     0.806000000    -0.628000000    -0.500000000
C     1.538000000     0.989000000     0.728000000
H     2.566000000     0.963000000     0.376000000
C     1.112000000     1.934000000     1.691000000
H     1.797000000     2.679000000     2.086000000
C    -0.175000000     2.047000000     2.106000000
C    -0.636000000     3.186000000     3.031000000
O     0.151000000     4.090000000     3.249000000
O    -1.776000000     3.316000000     3.256000000
O     2.618000000     4.293000000    -0.245000000
H     3.310000000     4.753000000    -0.721000000
H     2.975000000     4.165000000     0.634000000
O    -3.180000000     5.084000000     7.139000000
H    -2.330000000     4.685000000     7.322000000
H    -3.350000000     4.876000000     6.220000000
O    -0.075000000     3.337000000    -0.623000000
H    -0.210000000     2.503000000    -1.073000000
H     0.871000000     3.474000000    -0.651000000
O     4.142000000     4.483000000     2.028000000
H     3.749000000     4.572000000     2.896000000
H     5.061000000     4.277000000     2.201000000
O     0.204000000     6.236000000     4.647000000
H    -0.427000000     6.955000000     4.654000000
H    -0.196000000     5.571000000     4.086000000
O     0.651000000     9.134000000     1.727000000
H    -0.099000000     9.425000000     1.209000000
H     0.567000000     8.181000000     1.756000000
O    -0.053000000     4.288000000     6.514000000
H     0.439000000     3.483000000     6.352000000
H    -0.226000000     4.643000000     5.642000000
O     3.075000000     7.487000000     2.855000000
H     2.332000000     7.299000000     2.281000000
H     3.051000000     6.792000000     3.513000000
O     2.601000000     4.809000000     4.164000000
H     1.716000000     4.527000000     3.933000000
H     2.493000000     5.291000000     4.984000000
O    -3.954000000     6.335000000     1.941000000
H    -3.315000000     5.792000000     1.479000000
H    -3.597000000     7.222000000     1.888000000
O     1.542000000     8.629000000     6.512000000
H     2.062000000     8.284000000     7.238000000
H     1.392000000     7.873000000     5.944000000
O    -2.648000000     6.846000000    -1.485000000
H    -2.222000000     7.342000000    -0.786000000
H    -2.374000000     5.940000000    -1.337000000
O    -2.334000000     4.511000000     0.693000000
H    -2.239000000     4.134000000     1.567000000
H    -1.521000000     4.280000000     0.243000000
O    -1.949000000     7.676000000     6.988000000
H    -2.207000000     6.763000000     7.114000000
H    -1.536000000     7.924000000     7.816000000
O     1.018000000     6.203000000     1.498000000
H     0.505000000     5.530000000     1.946000000
H     1.399000000     5.751000000     0.745000000
O    -1.439000000     8.431000000     3.341000000
H    -2.001000000     9.051000000     3.804000000
H    -1.023000000     8.951000000     2.654000000
O    -3.726000000     4.634000000     4.415000000
H    -2.961000000     4.174000000     4.070000000
H    -3.757000000     5.452000000     3.919000000
O    -6.467000000     4.704000000     4.994000000
H    -5.735000000     4.138000000     4.749000000
H    -6.080000000     5.355000000     5.581000000
O     2.009000000     5.763000000     7.567000000
H     2.085000000     5.720000000     8.521000000
H     1.230000000     5.246000000     7.365000000
