215
-1427.91173
C     4.498000000     0.292000000     2.936000000
H     5.164000000    -0.029000000     2.140000000
C     3.424000000    -0.586000000     3.327000000
C     2.546000000    -0.242000000     4.331000000
H     1.652000000    -0.853000000     4.416000000
C     3.131000000    -1.758000000     2.400000000
O     4.271000000    -2.224000000     1.618000000
H     2.434000000    -1.418000000     1.619000000
O     2.564000000    -2.784000000     3.126000000
C     1.484000000    -3.465000000     2.546000000
C     0.231000000    -3.187000000     3.085000000
H     0.228000000    -2.488000000     3.917000000
C    -0.979000000    -3.667000000     2.519000000
O    -2.234000000    -3.231000000     2.983000000
C    -0.828000000    -4.522000000     1.415000000
C    -2.122000000    -4.994000000     0.746000000
H    -1.798000000    -5.954000000     0.337000000
C    -2.596000000    -4.037000000    -0.277000000
C    -2.172000000    -4.169000000    -1.604000000
H    -1.509000000    -4.967000000    -1.929000000
H    -2.859000000    -5.204000000     1.523000000
C     0.432000000    -4.772000000     0.911000000
H     0.441000000    -5.374000000     0.007000000
C     1.554000000    -4.199000000     1.357000000
C     2.901000000    -4.647000000     0.724000000
H     2.754000000    -5.572000000     0.162000000
H     3.660000000    -4.772000000     1.499000000
C     3.504000000    -3.576000000    -0.179000000
C     3.178000000    -3.577000000    -1.545000000
H     2.742000000    -4.488000000    -1.945000000
C     4.189000000    -2.437000000     0.246000000
C     4.434000000    -1.311000000    -0.608000000
H     4.904000000    -0.435000000    -0.170000000
C     4.077000000    -1.399000000    -1.961000000
O     4.283000000    -0.285000000    -2.784000000
C     3.088000000     0.493000000    -3.087000000
C     3.285000000     2.019000000    -2.908000000
C     2.755000000     2.963000000    -3.864000000
H     2.078000000     2.670000000    -4.662000000
C     4.249000000     2.507000000    -1.975000000
H     4.615000000     1.723000000    -1.317000000
O     2.543000000     0.070000000    -4.380000000
H     2.394000000     0.356000000    -2.244000000
C     3.427000000    -2.516000000    -2.433000000
C     2.983000000    -2.673000000    -3.903000000
H     2.972000000    -3.739000000    -4.139000000
H     3.750000000    -2.149000000    -4.477000000
C     1.612000000    -2.130000000    -4.165000000
C     0.469000000    -2.893000000    -4.026000000
H     0.454000000    -3.902000000    -3.623000000
C     1.472000000    -0.815000000    -4.456000000
C     0.213000000    -0.307000000    -4.716000000
H     0.077000000     0.771000000    -4.768000000
C    -0.956000000    -1.076000000    -4.513000000
O    -2.131000000    -0.298000000    -4.581000000
C    -2.697000000    -0.138000000    -3.300000000
C    -3.386000000     1.208000000    -3.085000000
C    -2.601000000     2.347000000    -3.253000000
H    -1.573000000     2.162000000    -3.556000000
C    -4.656000000     1.286000000    -2.526000000
H    -5.283000000     0.457000000    -2.209000000
O    -3.659000000    -1.194000000    -3.127000000
H    -1.920000000    -0.256000000    -2.530000000
C    -0.759000000    -2.369000000    -4.107000000
C    -1.924000000    -3.333000000    -3.907000000
H    -1.664000000    -4.361000000    -4.169000000
H    -2.691000000    -3.143000000    -4.660000000
C    -2.507000000    -3.202000000    -2.533000000
C    -3.399000000    -2.146000000    -2.210000000
C    -3.852000000    -2.045000000    -0.888000000
H    -4.534000000    -1.262000000    -0.566000000
C    -3.394000000    -2.967000000     0.064000000
O    -3.820000000    -2.780000000     1.387000000
C    -2.884000000    -2.203000000     2.277000000
H    -2.179000000    -1.671000000     1.621000000
C    -3.523000000    -1.164000000     3.215000000
C    -2.983000000    -0.893000000     4.514000000
H    -2.204000000    -1.547000000     4.897000000
C    -4.657000000    -0.475000000     2.844000000
H    -5.130000000    -0.610000000     1.875000000
C    -5.148000000     0.576000000     3.594000000
O    -6.162000000     1.407000000     3.115000000
C    -4.552000000     0.871000000     4.784000000
H    -4.883000000     1.787000000     5.268000000
C    -3.524000000     0.101000000     5.269000000
O    -2.788000000     0.392000000     6.419000000
C    -1.503000000    -0.097000000     6.646000000
C    -0.421000000     0.631000000     6.218000000
H    -0.666000000     1.489000000     5.597000000
C    -1.282000000    -1.177000000     7.488000000
H    -2.024000000    -1.740000000     8.049000000
C     0.064000000    -1.534000000     7.788000000
H     0.294000000    -2.418000000     8.377000000
C     1.077000000    -0.678000000     7.387000000
H     2.118000000    -0.862000000     7.640000000
C     0.897000000     0.319000000     6.483000000
O     1.888000000     1.176000000     6.113000000
C     2.766000000     0.861000000     5.138000000
C     3.882000000     1.662000000     4.897000000
H     4.145000000     2.445000000     5.605000000
C     4.711000000     1.421000000     3.749000000
O     5.787000000     2.248000000     3.520000000
C     6.224000000     2.442000000     2.231000000
C     5.524000000     3.373000000     1.376000000
H     4.625000000     3.881000000     1.715000000
C     7.438000000     1.981000000     1.863000000
H     8.086000000     1.389000000     2.505000000
C     7.870000000     2.085000000     0.514000000
H     8.787000000     1.633000000     0.144000000
C     7.094000000     2.839000000    -0.403000000
H     7.447000000     2.947000000    -1.426000000
C     5.939000000     3.429000000     0.049000000
O     5.193000000     4.291000000    -0.748000000
C     4.429000000     3.898000000    -1.872000000
C     3.752000000     4.818000000    -2.668000000
H     3.776000000     5.871000000    -2.401000000
C     2.914000000     4.317000000    -3.658000000
O     2.275000000     5.187000000    -4.574000000
C     0.957000000     5.010000000    -4.806000000
C     0.022000000     4.968000000    -3.735000000
H     0.321000000     4.931000000    -2.690000000
C     0.456000000     4.986000000    -6.128000000
H     1.169000000     5.218000000    -6.915000000
C    -0.879000000     4.840000000    -6.373000000
H    -1.290000000     4.971000000    -7.371000000
C    -1.810000000     4.752000000    -5.312000000
H    -2.852000000     4.561000000    -5.553000000
C    -1.329000000     4.851000000    -4.019000000
O    -2.280000000     4.748000000    -2.973000000
C    -3.061000000     3.618000000    -2.883000000
C    -4.324000000     3.735000000    -2.276000000
H    -4.777000000     4.675000000    -1.974000000
C    -5.100000000     2.562000000    -2.092000000
O    -6.251000000     2.857000000    -1.320000000
C    -6.655000000     2.015000000    -0.356000000
C    -7.703000000     1.181000000    -0.666000000
H    -8.016000000     1.020000000    -1.695000000
C    -8.395000000     0.519000000     0.375000000
H    -9.190000000    -0.214000000     0.264000000
C    -7.749000000     0.445000000     1.627000000
H    -8.117000000    -0.228000000     2.397000000
C    -6.744000000     1.374000000     1.922000000
C    -6.195000000     2.132000000     0.932000000
H    -5.322000000     2.764000000     1.074000000
C    -0.671000000     1.573000000     1.796000000
H    -1.511000000     1.970000000     2.360000000
C    -0.780000000     0.636000000     0.811000000
H    -1.737000000     0.176000000     0.576000000
C     0.363000000     0.170000000     0.176000000
H     0.188000000    -0.493000000    -0.712000000
C     1.591000000     0.693000000     0.535000000
H     2.535000000     0.367000000     0.106000000
C     1.667000000     1.534000000     1.603000000
H     2.617000000     1.849000000     2.027000000
C     0.582000000     1.907000000     2.285000000
C     0.837000000     2.929000000     3.393000000
O     1.784000000     3.590000000     3.532000000
O    -0.113000000     3.398000000     4.019000000
O     1.556000000     6.370000000     7.937000000
H     0.993000000     6.918000000     7.391000000
H     1.219000000     5.482000000     7.814000000
O     6.608000000     3.622000000     6.330000000
H     6.255000000     3.383000000     5.473000000
H     6.189000000     3.015000000     6.940000000
O    -2.072000000     4.058000000     8.013000000
H    -1.192000000     3.936000000     7.654000000
H    -2.269000000     4.981000000     7.853000000
O     1.004000000     3.397000000    -0.416000000
H     0.977000000     2.543000000     0.016000000
H     0.086000000     3.658000000    -0.489000000
O     3.663000000     2.334000000     8.169000000
H     3.056000000     1.716000000     8.576000000
H     4.279000000     1.782000000     7.687000000
O    -0.301000000     7.292000000     6.386000000
H     0.199000000     7.098000000     5.593000000
H    -1.202000000     7.054000000     6.165000000
O    -0.835000000     6.141000000    -0.192000000
H    -0.335000000     6.469000000    -0.939000000
H    -0.571000000     6.700000000     0.538000000
O     0.140000000     8.327000000     1.448000000
H     0.275000000     9.210000000     1.792000000
H     0.995000000     7.905000000     1.530000000
O     0.485000000     3.629000000     6.498000000
H     0.353000000     3.839000000     5.574000000
H     1.237000000     3.037000000     6.504000000
O     3.986000000     7.002000000     6.497000000
H     3.954000000     6.223000000     5.942000000
H     3.429000000     6.787000000     7.245000000
O    -2.140000000     3.635000000     0.080000000
H    -1.762000000     4.476000000    -0.177000000
H    -2.725000000     3.405000000    -0.641000000
O    -3.209000000     7.643000000     0.386000000
H    -3.748000000     6.988000000     0.829000000
H    -2.403000000     7.178000000     0.161000000
O     2.341000000     5.310000000     0.915000000
H     1.976000000     4.701000000     0.273000000
H     1.969000000     5.029000000     1.750000000
O     0.992000000     6.248000000     3.970000000
H     0.646000000     5.365000000     4.104000000
H     1.943000000     6.138000000     3.994000000
O    -4.252000000     5.744000000     2.273000000
H    -3.771000000     4.944000000     2.482000000
H    -4.677000000     5.990000000     3.094000000
O    -2.652000000     6.561000000     5.216000000
H    -3.461000000     6.082000000     5.397000000
H    -2.298000000     6.145000000     4.431000000
O     3.578000000     4.983000000     4.718000000
H     2.822000000     4.498000000     4.387000000
H     4.318000000     4.648000000     4.211000000
O     3.149000000     7.403000000    -0.298000000
H     3.402000000     7.929000000     0.460000000
H     2.732000000     6.627000000     0.077000000
O    -2.508000000     3.930000000     3.213000000
H    -2.307000000     3.707000000     2.304000000
H    -1.741000000     3.639000000     3.706000000
