215
-1467.37513
C     4.319000000     0.363000000     2.379000000
H     4.677000000     0.217000000     1.363000000
C     3.377000000    -0.578000000     2.837000000
C     2.904000000    -0.363000000     4.155000000
H     2.036000000    -0.954000000     4.438000000
C     2.901000000    -1.702000000     1.939000000
O     4.052000000    -2.064000000     1.031000000
H     2.026000000    -1.400000000     1.345000000
O     2.507000000    -2.863000000     2.768000000
C     1.433000000    -3.553000000     2.278000000
C     0.255000000    -3.546000000     2.991000000
H     0.321000000    -3.067000000     3.964000000
C    -0.893000000    -4.139000000     2.538000000
O    -2.034000000    -3.778000000     3.195000000
C    -0.874000000    -4.682000000     1.264000000
C    -2.218000000    -5.121000000     0.669000000
H    -2.174000000    -6.050000000     0.097000000
C    -2.803000000    -4.041000000    -0.188000000
C    -2.506000000    -4.016000000    -1.582000000
H    -1.697000000    -4.684000000    -1.867000000
H    -2.924000000    -5.371000000     1.463000000
C     0.317000000    -4.843000000     0.530000000
H     0.185000000    -5.387000000    -0.402000000
C     1.493000000    -4.265000000     1.037000000
C     2.816000000    -4.450000000     0.295000000
H     2.754000000    -5.392000000    -0.254000000
H     3.624000000    -4.636000000     1.006000000
C     3.012000000    -3.340000000    -0.695000000
C     2.600000000    -3.491000000    -2.021000000
H     2.102000000    -4.408000000    -2.325000000
C     3.733000000    -2.240000000    -0.295000000
C     3.954000000    -1.234000000    -1.243000000
H     4.416000000    -0.298000000    -0.939000000
C     3.651000000    -1.430000000    -2.578000000
O     3.830000000    -0.318000000    -3.400000000
C     2.649000000     0.522000000    -3.548000000
C     3.158000000     1.958000000    -3.500000000
C     2.529000000     2.982000000    -4.262000000
H     1.772000000     2.667000000    -4.976000000
C     4.091000000     2.353000000    -2.571000000
H     4.528000000     1.548000000    -1.986000000
O     2.009000000     0.159000000    -4.798000000
H     1.952000000     0.421000000    -2.704000000
C     2.976000000    -2.593000000    -3.026000000
C     2.304000000    -2.757000000    -4.440000000
H     2.232000000    -3.831000000    -4.625000000
H     2.922000000    -2.202000000    -5.150000000
C     0.955000000    -2.067000000    -4.578000000
C    -0.227000000    -2.799000000    -4.368000000
H    -0.129000000    -3.869000000    -4.209000000
C     0.915000000    -0.668000000    -4.735000000
C    -0.366000000    -0.034000000    -4.657000000
H    -0.418000000     1.049000000    -4.732000000
C    -1.502000000    -0.714000000    -4.353000000
O    -2.576000000     0.066000000    -4.083000000
C    -2.926000000     0.156000000    -2.687000000
C    -3.409000000     1.565000000    -2.299000000
C    -2.649000000     2.629000000    -2.692000000
H    -1.777000000     2.444000000    -3.315000000
C    -4.534000000     1.801000000    -1.522000000
H    -5.177000000     0.956000000    -1.289000000
O    -3.955000000    -0.785000000    -2.497000000
H    -2.090000000    -0.119000000    -2.027000000
C    -1.421000000    -2.102000000    -4.257000000
C    -2.598000000    -2.951000000    -3.894000000
H    -2.453000000    -3.955000000    -4.299000000
H    -3.407000000    -2.425000000    -4.406000000
C    -2.928000000    -2.926000000    -2.382000000
C    -3.668000000    -1.936000000    -1.803000000
C    -4.046000000    -2.013000000    -0.418000000
H    -4.554000000    -1.171000000     0.044000000
C    -3.522000000    -2.973000000     0.428000000
O    -3.791000000    -2.981000000     1.818000000
C    -2.738000000    -2.591000000     2.695000000
H    -2.014000000    -2.024000000     2.091000000
C    -3.172000000    -1.608000000     3.710000000
C    -2.355000000    -1.421000000     4.869000000
H    -1.646000000    -2.179000000     5.191000000
C    -4.163000000    -0.664000000     3.344000000
H    -4.830000000    -0.857000000     2.508000000
C    -4.389000000     0.417000000     4.188000000
O    -5.409000000     1.318000000     3.946000000
C    -3.615000000     0.574000000     5.374000000
H    -3.873000000     1.370000000     6.068000000
C    -2.543000000    -0.266000000     5.667000000
O    -1.930000000     0.014000000     6.873000000
C    -0.625000000    -0.286000000     7.032000000
C     0.342000000     0.605000000     6.508000000
H    -0.039000000     1.349000000     5.813000000
C    -0.180000000    -1.331000000     7.898000000
H    -0.943000000    -1.995000000     8.297000000
C     1.223000000    -1.611000000     8.050000000
H     1.570000000    -2.471000000     8.616000000
C     2.099000000    -0.720000000     7.460000000
H     3.129000000    -0.996000000     7.673000000
C     1.672000000     0.340000000     6.645000000
O     2.663000000     1.146000000     6.124000000
C     3.277000000     0.707000000     4.909000000
C     4.292000000     1.527000000     4.455000000
H     4.505000000     2.406000000     5.058000000
C     4.808000000     1.399000000     3.181000000
O     5.738000000     2.323000000     2.716000000
C     6.224000000     2.390000000     1.436000000
C     5.640000000     3.291000000     0.512000000
H     4.936000000     4.004000000     0.932000000
C     7.229000000     1.508000000     1.015000000
H     7.557000000     0.727000000     1.696000000
C     7.597000000     1.505000000    -0.332000000
H     8.327000000     0.754000000    -0.625000000
C     7.115000000     2.468000000    -1.194000000
H     7.481000000     2.529000000    -2.216000000
C     6.112000000     3.341000000    -0.804000000
O     5.518000000     4.155000000    -1.662000000
C     4.451000000     3.684000000    -2.485000000
C     3.746000000     4.644000000    -3.122000000
H     4.107000000     5.654000000    -2.942000000
C     2.799000000     4.326000000    -4.038000000
O     2.106000000     5.234000000    -4.828000000
C     0.715000000     4.986000000    -4.959000000
C    -0.117000000     5.080000000    -3.928000000
H     0.336000000     5.218000000    -2.950000000
C     0.214000000     4.647000000    -6.227000000
H     0.873000000     4.672000000    -7.091000000
C    -1.139000000     4.231000000    -6.327000000
H    -1.575000000     3.822000000    -7.235000000
C    -1.980000000     4.314000000    -5.200000000
H    -3.041000000     4.100000000    -5.297000000
C    -1.495000000     4.856000000    -4.040000000
O    -2.262000000     4.987000000    -2.884000000
C    -3.001000000     3.970000000    -2.389000000
C    -4.048000000     4.195000000    -1.482000000
H    -4.292000000     5.235000000    -1.278000000
C    -4.803000000     3.108000000    -1.000000000
O    -5.921000000     3.306000000    -0.219000000
C    -6.498000000     2.437000000     0.708000000
C    -7.776000000     1.968000000     0.599000000
H    -8.390000000     2.205000000    -0.266000000
C    -8.297000000     1.225000000     1.586000000
H    -9.343000000     0.932000000     1.580000000
C    -7.514000000     0.901000000     2.741000000
H    -7.964000000     0.568000000     3.673000000
C    -6.166000000     1.360000000     2.807000000
C    -5.688000000     2.152000000     1.793000000
H    -4.695000000     2.566000000     1.950000000
C    -1.305000000     3.717000000     1.486000000
H    -1.851000000     4.557000000     1.064000000
C    -1.595000000     2.446000000     1.038000000
H    -2.236000000     2.312000000     0.170000000
C    -0.938000000     1.347000000     1.528000000
H    -1.119000000     0.328000000     1.160000000
C     0.013000000     1.499000000     2.500000000
H     0.520000000     0.631000000     2.915000000
C     0.247000000     2.764000000     3.038000000
H     1.026000000     2.953000000     3.772000000
C    -0.468000000     3.863000000     2.551000000
C    -0.137000000     5.241000000     3.058000000
O     0.703000000     5.286000000     3.927000000
O    -0.758000000     6.180000000     2.682000000
O     4.811000000     5.076000000     5.101000000
H     5.069000000     4.763000000     5.968000000
H     4.169000000     5.764000000     5.276000000
O    -2.320000000     6.068000000     6.451000000
H    -2.325000000     6.107000000     7.407000000
H    -2.564000000     5.166000000     6.246000000
O    -3.312000000     5.642000000     3.597000000
H    -3.909000000     6.384000000     3.495000000
H    -2.513000000     5.914000000     3.146000000
O     0.717000000     2.572000000    -1.198000000
H     1.276000000     3.347000000    -1.249000000
H     0.102000000     2.766000000    -0.491000000
O    -3.003000000     3.539000000     7.511000000
H    -3.940000000     3.721000000     7.444000000
H    -2.749000000     3.261000000     6.631000000
O    -1.299000000    10.345000000     4.540000000
H    -2.098000000     9.999000000     4.141000000
H    -0.809000000     9.567000000     4.807000000
O     2.430000000     7.025000000     5.106000000
H     1.683000000     6.461000000     4.908000000
H     2.513000000     7.591000000     4.339000000
O     0.208000000     9.534000000     0.551000000
H    -0.708000000     9.490000000     0.826000000
H     0.505000000     8.624000000     0.563000000
O     5.064000000     6.331000000     2.303000000
H     5.239000000     6.499000000     3.229000000
H     4.116000000     6.210000000     2.256000000
O     1.013000000     4.033000000     6.197000000
H     0.857000000     4.477000000     5.364000000
H     0.174000000     3.625000000     6.412000000
O     2.985000000     9.206000000     3.367000000
H     3.207000000     9.533000000     2.495000000
H     2.896000000     9.994000000     3.903000000
O     3.026000000     4.615000000     2.547000000
H     2.255000000     4.584000000     3.114000000
H     3.718000000     4.198000000     3.060000000
O    -5.048000000     4.108000000     5.203000000
H    -4.618000000     4.607000000     4.508000000
H    -5.530000000     3.422000000     4.743000000
O    -2.175000000     8.271000000     1.769000000
H    -2.602000000     8.544000000     2.582000000
H    -1.628000000     7.528000000     2.024000000
O     0.811000000     6.940000000     0.405000000
H     0.397000000     6.680000000     1.227000000
H     1.279000000     6.158000000     0.113000000
O    -0.588000000     7.910000000     5.082000000
H    -0.523000000     7.254000000     4.388000000
H    -1.096000000     7.482000000     5.770000000
O     2.428000000     4.769000000    -0.281000000
H     3.129000000     4.748000000    -0.933000000
H     2.858000000     4.533000000     0.541000000
O    -2.015000000     3.312000000     4.976000000
H    -2.306000000     4.097000000     4.512000000
H    -1.428000000     2.874000000     4.359000000
O     0.858000000     9.435000000     6.838000000
H     0.773000000     8.991000000     5.994000000
H     1.154000000     8.751000000     7.439000000
