215
-1450.33390
C     4.473000000    -0.421000000     3.342000000
H     5.197000000    -0.605000000     2.553000000
C     3.305000000    -1.042000000     3.602000000
C     2.614000000    -0.719000000     4.787000000
H     1.745000000    -1.333000000     5.011000000
C     2.818000000    -2.122000000     2.678000000
O     3.937000000    -2.560000000     1.810000000
H     2.059000000    -1.650000000     2.036000000
O     2.208000000    -3.245000000     3.435000000
C     1.070000000    -3.764000000     2.864000000
C    -0.168000000    -3.221000000     3.362000000
H    -0.139000000    -2.514000000     4.188000000
C    -1.393000000    -3.646000000     2.777000000
O    -2.465000000    -2.980000000     3.278000000
C    -1.366000000    -4.465000000     1.637000000
C    -2.632000000    -4.744000000     0.801000000
H    -2.361000000    -5.684000000     0.316000000
C    -2.986000000    -3.781000000    -0.224000000
C    -2.634000000    -3.932000000    -1.556000000
H    -2.119000000    -4.853000000    -1.817000000
H    -3.474000000    -5.001000000     1.447000000
C    -0.140000000    -4.867000000     1.108000000
H    -0.123000000    -5.307000000     0.114000000
C     1.077000000    -4.535000000     1.727000000
C     2.389000000    -5.005000000     1.050000000
H     2.228000000    -5.938000000     0.506000000
H     3.242000000    -5.312000000     1.658000000
C     2.919000000    -3.984000000     0.100000000
C     2.680000000    -4.144000000    -1.284000000
H     2.099000000    -4.974000000    -1.676000000
C     3.707000000    -2.850000000     0.472000000
C     3.988000000    -1.811000000    -0.386000000
H     4.547000000    -0.964000000     0.005000000
C     3.637000000    -1.955000000    -1.713000000
O     3.984000000    -0.922000000    -2.581000000
C     2.980000000    -0.003000000    -2.938000000
C     3.267000000     1.480000000    -2.798000000
C     2.882000000     2.474000000    -3.796000000
H     2.354000000     2.150000000    -4.689000000
C     3.952000000     1.973000000    -1.731000000
H     4.366000000     1.291000000    -0.993000000
O     2.427000000    -0.324000000    -4.244000000
H     2.165000000    -0.020000000    -2.199000000
C     3.060000000    -3.123000000    -2.183000000
C     2.632000000    -3.162000000    -3.709000000
H     2.555000000    -4.169000000    -4.126000000
H     3.453000000    -2.774000000    -4.315000000
C     1.276000000    -2.390000000    -4.009000000
C     0.005000000    -3.040000000    -3.944000000
H     0.004000000    -4.102000000    -3.709000000
C     1.279000000    -1.046000000    -4.307000000
C     0.076000000    -0.327000000    -4.513000000
H     0.237000000     0.729000000    -4.712000000
C    -1.176000000    -0.950000000    -4.481000000
O    -2.328000000    -0.199000000    -4.577000000
C    -2.849000000     0.230000000    -3.347000000
C    -3.282000000     1.701000000    -3.314000000
C    -2.612000000     2.599000000    -4.181000000
H    -1.927000000     2.208000000    -4.929000000
C    -4.105000000     2.165000000    -2.239000000
H    -4.551000000     1.450000000    -1.552000000
O    -3.944000000    -0.731000000    -2.950000000
H    -2.058000000     0.189000000    -2.583000000
C    -1.204000000    -2.324000000    -4.123000000
C    -2.518000000    -3.050000000    -3.933000000
H    -2.310000000    -4.101000000    -4.142000000
H    -3.239000000    -2.606000000    -4.623000000
C    -2.927000000    -2.908000000    -2.475000000
C    -3.558000000    -1.726000000    -2.012000000
C    -3.890000000    -1.597000000    -0.667000000
H    -4.407000000    -0.672000000    -0.422000000
C    -3.613000000    -2.630000000     0.235000000
O    -4.081000000    -2.470000000     1.535000000
C    -3.069000000    -1.954000000     2.460000000
H    -2.296000000    -1.587000000     1.768000000
C    -3.465000000    -0.727000000     3.314000000
C    -2.622000000    -0.188000000     4.262000000
H    -1.697000000    -0.667000000     4.572000000
C    -4.566000000    -0.042000000     2.868000000
H    -5.262000000    -0.430000000     2.129000000
C    -4.828000000     1.208000000     3.426000000
O    -6.026000000     1.801000000     3.063000000
C    -4.000000000     1.721000000     4.469000000
H    -4.160000000     2.682000000     4.951000000
C    -2.886000000     1.090000000     4.794000000
O    -2.146000000     1.634000000     5.850000000
C    -1.233000000     0.866000000     6.521000000
C     0.105000000     1.133000000     6.397000000
H     0.412000000     1.958000000     5.760000000
C    -1.641000000    -0.208000000     7.308000000
H    -2.705000000    -0.388000000     7.440000000
C    -0.725000000    -1.084000000     7.787000000
H    -1.017000000    -1.947000000     8.379000000
C     0.593000000    -0.721000000     7.831000000
H     1.396000000    -1.208000000     8.379000000
C     1.026000000     0.365000000     7.090000000
O     2.414000000     0.439000000     6.903000000
C     3.123000000     0.128000000     5.740000000
C     4.291000000     0.820000000     5.413000000
H     4.650000000     1.563000000     6.121000000
C     4.917000000     0.627000000     4.192000000
O     5.902000000     1.502000000     3.855000000
C     6.330000000     1.761000000     2.590000000
C     5.544000000     2.636000000     1.760000000
H     4.726000000     3.225000000     2.167000000
C     7.306000000     0.983000000     1.911000000
H     7.844000000     0.180000000     2.409000000
C     7.541000000     1.182000000     0.549000000
H     8.244000000     0.610000000    -0.051000000
C     6.814000000     2.099000000    -0.163000000
H     7.049000000     2.319000000    -1.201000000
C     5.839000000     2.851000000     0.415000000
O     5.064000000     3.693000000    -0.369000000
C     4.294000000     3.330000000    -1.523000000
C     3.872000000     4.187000000    -2.495000000
H     3.910000000     5.252000000    -2.284000000
C     3.233000000     3.786000000    -3.642000000
O     2.660000000     4.769000000    -4.406000000
C     1.520000000     4.572000000    -5.126000000
C     0.256000000     4.917000000    -4.613000000
H     0.116000000     5.374000000    -3.637000000
C     1.666000000     4.237000000    -6.444000000
H     2.638000000     4.057000000    -6.898000000
C     0.524000000     4.208000000    -7.287000000
H     0.603000000     4.024000000    -8.355000000
C    -0.709000000     4.419000000    -6.678000000
H    -1.636000000     4.319000000    -7.237000000
C    -0.898000000     4.701000000    -5.374000000
O    -2.205000000     4.860000000    -4.887000000
C    -2.812000000     3.969000000    -4.008000000
C    -3.671000000     4.406000000    -2.985000000
H    -3.843000000     5.470000000    -2.850000000
C    -4.389000000     3.491000000    -2.203000000
O    -5.129000000     4.040000000    -1.157000000
C    -5.877000000     3.232000000    -0.337000000
C    -7.058000000     2.674000000    -0.846000000
H    -7.242000000     2.886000000    -1.896000000
C    -7.912000000     1.830000000    -0.118000000
H    -8.745000000     1.224000000    -0.464000000
C    -7.581000000     1.549000000     1.166000000
H    -8.196000000     0.883000000     1.767000000
C    -6.360000000     2.030000000     1.730000000
C    -5.527000000     2.856000000     0.963000000
H    -4.570000000     3.167000000     1.375000000
C    -0.947000000     1.915000000     1.260000000
H    -1.846000000     2.444000000     1.566000000
C    -1.008000000     0.738000000     0.565000000
H    -2.007000000     0.346000000     0.395000000
C     0.110000000     0.038000000     0.226000000
H     0.071000000    -0.912000000    -0.276000000
C     1.339000000     0.624000000     0.489000000
H     2.282000000     0.141000000     0.245000000
C     1.423000000     1.795000000     1.223000000
H     2.396000000     2.100000000     1.601000000
C     0.276000000     2.460000000     1.672000000
C     0.277000000     3.604000000     2.663000000
O     1.356000000     4.060000000     3.028000000
O    -0.779000000     3.947000000     3.243000000
O    -4.267000000     7.213000000     2.313000000
H    -4.453000000     8.012000000     2.807000000
H    -3.844000000     6.634000000     2.947000000
O    -0.814000000     6.713000000    -0.529000000
H    -0.173000000     6.130000000    -0.938000000
H    -1.205000000     6.186000000     0.168000000
O     5.298000000     6.408000000     2.924000000
H     4.975000000     7.309000000     2.891000000
H     5.930000000     6.354000000     2.207000000
O     2.623000000     6.634000000     5.892000000
H     3.534000000     6.915000000     5.980000000
H     2.680000000     5.719000000     5.616000000
O     1.097000000     4.987000000    -1.003000000
H     1.625000000     4.861000000    -0.215000000
H     1.623000000     4.607000000    -1.707000000
O    -2.373000000     7.044000000     6.789000000
H    -1.502000000     7.133000000     7.176000000
H    -2.542000000     6.101000000     6.793000000
O     2.239000000     8.613000000     1.742000000
H     1.821000000     7.929000000     2.265000000
H     2.283000000     9.369000000     2.327000000
O    -4.530000000     6.988000000    -0.547000000
H    -3.774000000     6.423000000    -0.706000000
H    -4.578000000     7.060000000     0.406000000
O     0.250000000     6.963000000     7.747000000
H     1.051000000     7.486000000     7.731000000
H     0.441000000     6.213000000     7.183000000
O     1.318000000     4.140000000     8.279000000
H     1.065000000     4.304000000     7.370000000
H     2.059000000     4.727000000     8.431000000
O     2.961000000     5.306000000     0.960000000
H     3.738000000     5.650000000     1.399000000
H     2.461000000     4.879000000     1.656000000
O    -2.289000000     4.944000000     1.126000000
H    -2.996000000     5.316000000     1.653000000
H    -1.778000000     4.421000000     1.745000000
O     3.642000000     7.409000000    -0.636000000
H     3.241000000     6.678000000    -0.166000000
H     3.644000000     8.128000000    -0.003000000
O    -0.323000000     9.216000000     1.090000000
H     0.615000000     9.383000000     1.185000000
H    -0.382000000     8.275000000     0.921000000
O    -2.298000000     8.230000000     4.361000000
H    -2.300000000     7.683000000     5.146000000
H    -1.783000000     7.735000000     3.724000000
O    -0.476000000     4.580000000     5.992000000
H    -1.189000000     4.030000000     6.316000000
H    -0.469000000     4.430000000     5.046000000
O     2.885000000     3.990000000     5.240000000
H     2.296000000     4.150000000     4.503000000
H     3.329000000     3.171000000     5.019000000
O     1.013000000     7.002000000     3.632000000
H     1.383000000     6.961000000     4.514000000
H     0.808000000     6.092000000     3.416000000
O    -3.379000000     5.027000000     3.880000000
H    -2.638000000     4.442000000     3.723000000
H    -3.427000000     5.102000000     4.833000000
