215
-1446.94944
C     4.293000000     0.179000000     2.949000000
H     4.623000000    -0.037000000     1.936000000
C     3.220000000    -0.572000000     3.443000000
C     2.516000000    -0.171000000     4.541000000
H     1.617000000    -0.751000000     4.735000000
C     2.675000000    -1.818000000     2.700000000
O     3.741000000    -2.572000000     2.056000000
H     1.910000000    -1.460000000     1.996000000
O     1.991000000    -2.819000000     3.483000000
C     0.860000000    -3.462000000     3.031000000
C    -0.377000000    -3.040000000     3.553000000
H    -0.503000000    -2.328000000     4.364000000
C    -1.478000000    -3.448000000     2.897000000
O    -2.667000000    -2.888000000     3.266000000
C    -1.445000000    -4.302000000     1.816000000
C    -2.665000000    -4.764000000     1.046000000
H    -2.480000000    -5.710000000     0.533000000
C    -3.143000000    -3.796000000    -0.020000000
C    -2.735000000    -4.090000000    -1.386000000
H    -2.170000000    -4.994000000    -1.602000000
H    -3.432000000    -5.098000000     1.748000000
C    -0.240000000    -4.805000000     1.329000000
H    -0.164000000    -5.462000000     0.466000000
C     0.922000000    -4.433000000     2.018000000
C     2.277000000    -4.900000000     1.471000000
H     2.202000000    -5.929000000     1.114000000
H     2.966000000    -4.836000000     2.315000000
C     2.856000000    -3.996000000     0.419000000
C     2.509000000    -4.240000000    -0.937000000
H     1.906000000    -5.119000000    -1.151000000
C     3.585000000    -2.884000000     0.735000000
C     3.973000000    -2.007000000    -0.231000000
H     4.601000000    -1.150000000    -0.003000000
C     3.636000000    -2.182000000    -1.585000000
O     3.970000000    -1.183000000    -2.404000000
C     2.908000000    -0.303000000    -2.692000000
C     3.304000000     1.156000000    -2.614000000
C     2.389000000     2.160000000    -2.895000000
H     1.368000000     1.896000000    -3.158000000
C     4.533000000     1.557000000    -2.123000000
H     5.272000000     0.814000000    -1.838000000
O     2.326000000    -0.596000000    -3.945000000
H     2.159000000    -0.371000000    -1.889000000
C     2.901000000    -3.325000000    -1.925000000
C     2.590000000    -3.601000000    -3.369000000
H     2.473000000    -4.686000000    -3.407000000
H     3.452000000    -3.316000000    -3.977000000
C     1.285000000    -2.871000000    -3.735000000
C     0.042000000    -3.510000000    -3.627000000
H    -0.010000000    -4.561000000    -3.353000000
C     1.288000000    -1.443000000    -4.025000000
C     0.087000000    -0.806000000    -4.296000000
H     0.111000000     0.278000000    -4.375000000
C    -1.091000000    -1.476000000    -4.279000000
O    -2.158000000    -0.642000000    -4.519000000
C    -2.896000000    -0.238000000    -3.329000000
C    -3.243000000     1.279000000    -3.443000000
C    -2.615000000     2.164000000    -4.322000000
H    -1.758000000     1.917000000    -4.944000000
C    -4.421000000     1.631000000    -2.786000000
H    -5.012000000     1.006000000    -2.122000000
O    -3.951000000    -1.155000000    -3.126000000
H    -2.151000000    -0.406000000    -2.537000000
C    -1.150000000    -2.843000000    -3.958000000
C    -2.498000000    -3.478000000    -3.813000000
H    -2.571000000    -4.545000000    -4.034000000
H    -3.152000000    -3.056000000    -4.579000000
C    -3.019000000    -3.262000000    -2.435000000
C    -3.770000000    -2.122000000    -2.198000000
C    -4.133000000    -1.794000000    -0.875000000
H    -4.714000000    -0.891000000    -0.701000000
C    -3.892000000    -2.676000000     0.219000000
O    -4.165000000    -2.180000000     1.501000000
C    -3.100000000    -1.780000000     2.375000000
H    -2.207000000    -1.601000000     1.758000000
C    -3.387000000    -0.507000000     3.078000000
C    -3.044000000    -0.369000000     4.409000000
H    -2.481000000    -1.108000000     4.973000000
C    -3.956000000     0.567000000     2.321000000
H    -4.104000000     0.457000000     1.250000000
C    -4.247000000     1.767000000     2.931000000
O    -4.754000000     2.841000000     2.171000000
C    -3.884000000     1.929000000     4.297000000
H    -3.857000000     2.951000000     4.666000000
C    -3.252000000     0.903000000     5.008000000
O    -2.703000000     1.213000000     6.242000000
C    -1.457000000     0.853000000     6.647000000
C    -0.270000000     1.407000000     6.174000000
H    -0.269000000     2.262000000     5.503000000
C    -1.403000000    -0.091000000     7.683000000
H    -2.357000000    -0.523000000     7.975000000
C    -0.202000000    -0.487000000     8.280000000
H    -0.165000000    -1.129000000     9.157000000
C     0.984000000     0.045000000     7.793000000
H     1.937000000    -0.211000000     8.249000000
C     0.967000000     0.942000000     6.686000000
O     2.111000000     1.560000000     6.157000000
C     2.862000000     1.030000000     5.142000000
C     4.007000000     1.680000000     4.766000000
H     4.262000000     2.572000000     5.332000000
C     4.739000000     1.343000000     3.651000000
O     5.728000000     2.170000000     3.166000000
C     6.433000000     1.970000000     1.977000000
C     5.970000000     2.601000000     0.781000000
H     5.017000000     3.115000000     0.697000000
C     7.691000000     1.317000000     1.956000000
H     8.160000000     0.935000000     2.859000000
C     8.413000000     1.390000000     0.737000000
H     9.366000000     0.869000000     0.710000000
C     7.873000000     1.854000000    -0.457000000
H     8.505000000     1.799000000    -1.340000000
C     6.675000000     2.518000000    -0.399000000
O     6.173000000     3.204000000    -1.494000000
C     4.904000000     2.912000000    -2.038000000
C     4.089000000     3.920000000    -2.504000000
H     4.349000000     4.974000000    -2.452000000
C     2.762000000     3.522000000    -2.867000000
O     1.889000000     4.501000000    -3.071000000
C     1.047000000     4.444000000    -4.276000000
C    -0.330000000     4.409000000    -4.176000000
H    -0.880000000     4.394000000    -3.239000000
C     1.608000000     4.808000000    -5.468000000
H     2.628000000     5.180000000    -5.514000000
C     0.904000000     4.830000000    -6.658000000
H     1.421000000     5.135000000    -7.565000000
C    -0.456000000     4.629000000    -6.623000000
H    -0.995000000     4.498000000    -7.558000000
C    -1.084000000     4.506000000    -5.406000000
O    -2.461000000     4.392000000    -5.277000000
C    -3.082000000     3.457000000    -4.411000000
C    -4.269000000     3.853000000    -3.806000000
H    -4.616000000     4.872000000    -3.962000000
C    -4.929000000     2.939000000    -2.998000000
O    -6.045000000     3.253000000    -2.432000000
C    -6.357000000     2.876000000    -1.153000000
C    -7.566000000     2.177000000    -0.979000000
H    -8.124000000     2.164000000    -1.912000000
C    -7.888000000     1.808000000     0.319000000
H    -8.835000000     1.293000000     0.461000000
C    -6.983000000     2.042000000     1.362000000
H    -7.303000000     1.826000000     2.378000000
C    -5.718000000     2.692000000     1.189000000
C    -5.395000000     3.085000000    -0.116000000
H    -4.552000000     3.760000000    -0.233000000
C    -0.479000000     1.923000000     2.037000000
H    -1.300000000     2.258000000     2.665000000
C    -0.549000000     0.744000000     1.323000000
H    -1.527000000     0.321000000     1.107000000
C     0.586000000     0.269000000     0.737000000
H     0.446000000    -0.654000000     0.128000000
C     1.789000000     0.912000000     0.730000000
H     2.660000000     0.582000000     0.170000000
C     1.833000000     2.139000000     1.418000000
H     2.752000000     2.720000000     1.408000000
C     0.756000000     2.608000000     2.140000000
C     0.864000000     3.909000000     2.971000000
O     2.012000000     4.321000000     3.134000000
O    -0.135000000     4.399000000     3.449000000
O     0.362000000     6.778000000     7.681000000
H    -0.458000000     6.840000000     8.171000000
H     0.239000000     6.026000000     7.102000000
O     5.817000000     4.853000000     6.268000000
H     5.184000000     5.054000000     5.578000000
H     5.650000000     3.936000000     6.485000000
O     2.356000000     5.562000000    -0.666000000
H     3.109000000     6.152000000    -0.700000000
H     2.312000000     5.179000000    -1.542000000
O    -0.425000000     3.339000000     8.819000000
H     0.331000000     3.184000000     8.253000000
H    -1.050000000     3.802000000     8.261000000
O    -0.268000000     3.162000000    -1.009000000
H     0.640000000     3.399000000    -0.820000000
H    -0.395000000     2.325000000    -0.563000000
O     5.854000000     6.239000000     3.122000000
H     6.105000000     5.315000000     3.132000000
H     6.057000000     6.533000000     2.234000000
O     0.263000000     7.198000000    -2.070000000
H     0.490000000     6.269000000    -2.033000000
H     0.262000000     7.408000000    -3.004000000
O    -1.844000000     7.111000000     5.650000000
H    -1.385000000     6.776000000     4.880000000
H    -2.693000000     7.401000000     5.315000000
O    -0.879000000     7.496000000     0.277000000
H    -0.460000000     7.562000000    -0.581000000
H    -0.340000000     8.042000000     0.849000000
O     0.496000000     8.991000000     1.847000000
H     0.337000000     8.416000000     2.596000000
H     0.849000000     9.793000000     2.231000000
O     3.251000000     8.730000000     3.080000000
H     3.176000000     7.993000000     2.475000000
H     4.101000000     8.607000000     3.504000000
O     0.010000000     4.644000000     6.209000000
H     0.506000000     4.799000000     5.405000000
H    -0.896000000     4.546000000     5.916000000
O     3.116000000     6.869000000     6.826000000
H     3.177000000     6.304000000     6.056000000
H     2.227000000     6.734000000     7.153000000
O    -2.316000000     5.166000000    -1.028000000
H    -1.900000000     5.575000000    -0.270000000
H    -1.757000000     4.416000000    -1.233000000
O     2.874000000     6.427000000     1.866000000
H     2.321000000     6.491000000     1.087000000
H     2.703000000     5.550000000     2.209000000
O     0.633000000     6.979000000     3.678000000
H     1.569000000     6.858000000     3.519000000
H     0.236000000     6.150000000     3.411000000
O    -4.799000000     5.960000000     2.189000000
H    -3.900000000     5.849000000     1.880000000
H    -4.707000000     6.354000000     3.056000000
O     3.658000000     5.372000000     4.795000000
H     3.105000000     4.733000000     4.346000000
H     4.048000000     5.889000000     4.089000000
O    -1.948000000     5.547000000     1.907000000
H    -1.318000000     6.174000000     1.551000000
H    -1.459000000     5.069000000     2.577000000
