215
-1440.00261
C     3.799000000    -0.284000000     3.322000000
H     4.322000000    -0.450000000     2.383000000
C     2.654000000    -1.017000000     3.727000000
C     2.099000000    -0.822000000     4.983000000
H     1.277000000    -1.408000000     5.389000000
C     2.157000000    -2.172000000     2.792000000
O     3.229000000    -2.888000000     2.173000000
H     1.542000000    -1.808000000     1.956000000
O     1.302000000    -3.105000000     3.486000000
C     0.258000000    -3.608000000     2.796000000
C    -0.964000000    -3.053000000     3.168000000
H    -0.935000000    -2.434000000     4.061000000
C    -2.151000000    -3.404000000     2.508000000
O    -3.329000000    -2.787000000     2.905000000
C    -2.128000000    -4.260000000     1.368000000
C    -3.432000000    -4.517000000     0.565000000
H    -3.306000000    -5.479000000     0.064000000
C    -3.707000000    -3.495000000    -0.503000000
C    -3.197000000    -3.635000000    -1.746000000
H    -2.724000000    -4.602000000    -1.899000000
H    -4.392000000    -4.624000000     1.076000000
C    -0.920000000    -4.866000000     1.072000000
H    -0.945000000    -5.586000000     0.258000000
C     0.293000000    -4.512000000     1.752000000
C     1.573000000    -5.115000000     1.261000000
H     1.332000000    -6.042000000     0.736000000
H     2.148000000    -5.538000000     2.087000000
C     2.347000000    -4.143000000     0.363000000
C     2.253000000    -4.299000000    -0.995000000
H     1.582000000    -5.059000000    -1.387000000
C     3.207000000    -3.157000000     0.849000000
C     3.935000000    -2.335000000    -0.001000000
H     4.524000000    -1.525000000     0.422000000
C     3.726000000    -2.498000000    -1.362000000
O     4.198000000    -1.534000000    -2.195000000
C     3.236000000    -0.500000000    -2.645000000
C     3.786000000     0.957000000    -2.553000000
C     3.249000000     1.985000000    -3.372000000
H     2.457000000     1.723000000    -4.070000000
C     4.908000000     1.270000000    -1.698000000
H     5.540000000     0.513000000    -1.241000000
O     2.713000000    -0.755000000    -3.972000000
H     2.447000000    -0.547000000    -1.880000000
C     2.867000000    -3.443000000    -1.851000000
C     2.527000000    -3.620000000    -3.298000000
H     2.360000000    -4.677000000    -3.512000000
H     3.385000000    -3.349000000    -3.916000000
C     1.344000000    -2.793000000    -3.695000000
C     0.060000000    -3.305000000    -3.690000000
H    -0.109000000    -4.348000000    -3.434000000
C     1.535000000    -1.444000000    -4.111000000
C     0.486000000    -0.618000000    -4.449000000
H     0.715000000     0.398000000    -4.760000000
C    -0.748000000    -1.138000000    -4.372000000
O    -1.778000000    -0.219000000    -4.589000000
C    -2.383000000     0.428000000    -3.448000000
C    -2.584000000     1.938000000    -3.667000000
C    -1.939000000     2.720000000    -4.608000000
H    -1.367000000     2.197000000    -5.370000000
C    -3.381000000     2.599000000    -2.741000000
H    -4.029000000     2.028000000    -2.080000000
O    -3.590000000    -0.230000000    -3.090000000
H    -1.682000000     0.289000000    -2.612000000
C    -1.008000000    -2.457000000    -4.013000000
C    -2.474000000    -2.892000000    -3.983000000
H    -2.486000000    -3.968000000    -4.169000000
H    -3.100000000    -2.420000000    -4.743000000
C    -3.049000000    -2.539000000    -2.618000000
C    -3.588000000    -1.338000000    -2.299000000
C    -4.125000000    -1.129000000    -1.039000000
H    -4.427000000    -0.141000000    -0.701000000
C    -4.229000000    -2.253000000    -0.129000000
O    -4.660000000    -1.933000000     1.126000000
C    -3.646000000    -1.595000000     2.089000000
H    -2.767000000    -1.190000000     1.565000000
C    -3.996000000    -0.360000000     2.955000000
C    -3.387000000    -0.187000000     4.203000000
H    -2.780000000    -1.011000000     4.572000000
C    -4.750000000     0.724000000     2.459000000
H    -5.160000000     0.617000000     1.457000000
C    -4.979000000     1.870000000     3.166000000
O    -5.770000000     2.822000000     2.619000000
C    -4.391000000     2.068000000     4.385000000
H    -4.584000000     2.967000000     4.966000000
C    -3.552000000     1.020000000     4.889000000
O    -2.599000000     1.481000000     5.820000000
C    -1.739000000     0.746000000     6.663000000
C    -0.350000000     0.997000000     6.481000000
H    -0.052000000     1.650000000     5.666000000
C    -2.207000000    -0.129000000     7.640000000
H    -3.256000000    -0.348000000     7.822000000
C    -1.272000000    -0.778000000     8.469000000
H    -1.558000000    -1.517000000     9.213000000
C     0.116000000    -0.577000000     8.256000000
H     0.752000000    -1.262000000     8.811000000
C     0.579000000     0.308000000     7.309000000
O     1.949000000     0.325000000     7.002000000
C     2.597000000     0.126000000     5.804000000
C     3.616000000     1.017000000     5.378000000
H     4.017000000     1.876000000     5.910000000
C     4.264000000     0.714000000     4.139000000
O     5.239000000     1.541000000     3.646000000
C     6.035000000     1.399000000     2.565000000
C     5.833000000     2.284000000     1.527000000
H     4.933000000     2.889000000     1.450000000
C     7.022000000     0.506000000     2.565000000
H     7.130000000    -0.003000000     3.520000000
C     8.001000000     0.551000000     1.547000000
H     8.789000000    -0.197000000     1.581000000
C     7.820000000     1.388000000     0.435000000
H     8.473000000     1.370000000    -0.434000000
C     6.669000000     2.156000000     0.375000000
O     6.384000000     2.900000000    -0.780000000
C     5.345000000     2.577000000    -1.617000000
C     4.687000000     3.581000000    -2.306000000
H     4.911000000     4.629000000    -2.125000000
C     3.610000000     3.305000000    -3.164000000
O     3.081000000     4.298000000    -3.927000000
C     2.109000000     4.090000000    -4.849000000
C     0.859000000     4.650000000    -4.693000000
H     0.495000000     5.041000000    -3.746000000
C     2.522000000     3.522000000    -6.104000000
H     3.474000000     3.014000000    -6.235000000
C     1.626000000     3.414000000    -7.177000000
H     1.850000000     2.861000000    -8.086000000
C     0.304000000     3.862000000    -6.975000000
H    -0.495000000     3.786000000    -7.708000000
C    -0.062000000     4.560000000    -5.817000000
O    -1.405000000     4.847000000    -5.548000000
C    -2.057000000     4.127000000    -4.583000000
C    -2.882000000     4.785000000    -3.673000000
H    -3.010000000     5.864000000    -3.652000000
C    -3.449000000     4.006000000    -2.677000000
O    -4.086000000     4.582000000    -1.634000000
C    -5.076000000     4.072000000    -0.794000000
C    -6.323000000     3.820000000    -1.374000000
H    -6.504000000     4.279000000    -2.343000000
C    -7.392000000     3.285000000    -0.614000000
H    -8.354000000     3.122000000    -1.091000000
C    -7.114000000     2.885000000     0.658000000
H    -7.903000000     2.393000000     1.221000000
C    -5.882000000     3.116000000     1.278000000
C    -4.855000000     3.653000000     0.536000000
H    -3.927000000     3.946000000     1.021000000
C    -1.089000000     1.158000000     1.320000000
H    -2.135000000     1.450000000     1.364000000
C    -0.808000000     0.132000000     0.397000000
H    -1.583000000    -0.347000000    -0.196000000
C     0.522000000    -0.305000000     0.142000000
H     0.726000000    -1.137000000    -0.542000000
C     1.515000000     0.369000000     0.834000000
H     2.544000000     0.028000000     0.758000000
C     1.269000000     1.391000000     1.705000000
H     2.093000000     1.976000000     2.104000000
C    -0.048000000     1.778000000     2.038000000
C    -0.334000000     2.871000000     3.026000000
O     0.630000000     3.417000000     3.555000000
O    -1.434000000     3.377000000     3.136000000
O    -0.022000000     6.116000000     8.063000000
H    -0.825000000     5.765000000     8.447000000
H     0.255000000     5.448000000     7.435000000
O    -4.164000000     6.329000000     7.102000000
H    -4.912000000     5.866000000     7.480000000
H    -3.880000000     5.773000000     6.377000000
O     1.288000000     4.426000000     0.775000000
H     0.825000000     3.958000000     1.469000000
H     0.947000000     4.050000000    -0.037000000
O    -1.005000000     3.212000000     9.267000000
H    -1.660000000     3.663000000     8.733000000
H    -1.373000000     2.341000000     9.413000000
O     1.051000000     2.674000000    -1.383000000
H     0.952000000     1.959000000    -0.754000000
H     1.895000000     2.508000000    -1.803000000
O    -4.348000000     3.297000000     7.323000000
H    -4.585000000     2.395000000     7.106000000
H    -4.405000000     3.337000000     8.277000000
O    -0.726000000     8.595000000     4.767000000
H    -0.590000000     8.393000000     3.841000000
H    -0.780000000     7.739000000     5.193000000
O    -5.400000000     5.385000000     3.415000000
H    -4.610000000     4.990000000     3.048000000
H    -5.902000000     4.645000000     3.757000000
O     3.378000000     7.712000000     3.243000000
H     3.682000000     6.813000000     3.117000000
H     3.563000000     7.901000000     4.163000000
O     0.469000000     5.058000000     5.576000000
H     0.662000000     4.381000000     4.928000000
H    -0.485000000     5.129000000     5.573000000
O     2.873000000     5.918000000     6.877000000
H     3.350000000     5.444000000     6.195000000
H     2.030000000     6.131000000     6.476000000
O    -1.807000000     6.884000000    -0.431000000
H    -2.550000000     7.372000000    -0.076000000
H    -1.531000000     6.312000000     0.285000000
O     2.947000000     4.729000000     2.786000000
H     2.493000000     4.681000000     1.945000000
H     2.284000000     4.481000000     3.431000000
O     0.026000000     7.396000000     2.515000000
H     0.332000000     7.684000000     1.654000000
H     0.810000000     7.409000000     3.064000000
O     1.696000000     7.388000000     0.245000000
H     1.186000000     7.359000000    -0.565000000
H     1.675000000     6.489000000     0.573000000
O    -4.055000000     7.513000000     0.915000000
H    -3.618000000     6.897000000     1.503000000
H    -3.974000000     8.360000000     1.352000000
O    -2.213000000     4.401000000     5.411000000
H    -2.517000000     3.576000000     5.788000000
H    -1.977000000     4.181000000     4.510000000
O     5.161000000     4.961000000     4.128000000
H     4.447000000     4.870000000     3.497000000
H     5.944000000     5.073000000     3.589000000
O    -2.145000000     5.851000000     2.321000000
H    -1.393000000     6.440000000     2.269000000
H    -1.798000000     5.052000000     2.719000000
