215
-1467.48509
C     3.973000000    -0.346000000     3.150000000
H     4.843000000    -0.847000000     2.733000000
C     2.659000000    -0.813000000     2.945000000
C     1.522000000    -0.113000000     3.438000000
H     0.554000000    -0.608000000     3.456000000
C     2.330000000    -2.122000000     2.275000000
O     3.544000000    -2.858000000     1.858000000
H     1.830000000    -1.857000000     1.332000000
O     1.467000000    -3.002000000     2.980000000
C     0.346000000    -3.588000000     2.341000000
C    -0.916000000    -3.138000000     2.821000000
H    -0.953000000    -2.407000000     3.625000000
C    -2.110000000    -3.652000000     2.214000000
O    -3.288000000    -3.049000000     2.530000000
C    -1.964000000    -4.507000000     1.099000000
C    -3.175000000    -4.940000000     0.209000000
H    -3.023000000    -5.932000000    -0.221000000
C    -3.538000000    -3.930000000    -0.852000000
C    -2.951000000    -3.935000000    -2.081000000
H    -2.290000000    -4.771000000    -2.294000000
H    -3.986000000    -5.177000000     0.901000000
C    -0.714000000    -5.049000000     0.734000000
H    -0.627000000    -5.641000000    -0.173000000
C     0.462000000    -4.601000000     1.377000000
C     1.872000000    -5.127000000     1.058000000
H     1.791000000    -6.121000000     0.613000000
H     2.389000000    -5.174000000     2.019000000
C     2.634000000    -4.220000000     0.074000000
C     2.480000000    -4.289000000    -1.279000000
H     1.783000000    -4.978000000    -1.749000000
C     3.619000000    -3.256000000     0.543000000
C     4.350000000    -2.436000000    -0.322000000
H     5.016000000    -1.655000000     0.036000000
C     4.136000000    -2.549000000    -1.664000000
O     4.565000000    -1.523000000    -2.397000000
C     3.708000000    -0.403000000    -2.619000000
C     4.438000000     0.914000000    -2.349000000
C     3.987000000     2.094000000    -2.968000000
H     3.087000000     2.044000000    -3.576000000
C     5.530000000     1.018000000    -1.469000000
H     5.979000000     0.154000000    -0.986000000
O     3.027000000    -0.518000000    -3.879000000
H     2.925000000    -0.373000000    -1.846000000
C     3.183000000    -3.437000000    -2.175000000
C     2.850000000    -3.452000000    -3.650000000
H     2.513000000    -4.432000000    -3.993000000
H     3.690000000    -3.211000000    -4.305000000
C     1.702000000    -2.489000000    -3.917000000
C     0.363000000    -3.013000000    -4.017000000
H     0.282000000    -4.090000000    -3.890000000
C     1.854000000    -1.139000000    -4.003000000
C     0.727000000    -0.300000000    -4.265000000
H     0.802000000     0.767000000    -4.464000000
C    -0.593000000    -0.890000000    -4.299000000
O    -1.636000000    -0.022000000    -4.422000000
C    -2.452000000     0.257000000    -3.241000000
C    -2.656000000     1.755000000    -2.856000000
C    -1.561000000     2.544000000    -2.962000000
H    -0.602000000     2.186000000    -3.327000000
C    -3.868000000     2.180000000    -2.371000000
H    -4.763000000     1.563000000    -2.364000000
O    -3.731000000    -0.589000000    -3.298000000
H    -1.762000000    -0.129000000    -2.477000000
C    -0.808000000    -2.251000000    -4.109000000
C    -2.236000000    -2.853000000    -4.205000000
H    -2.240000000    -3.896000000    -4.529000000
H    -2.859000000    -2.394000000    -4.976000000
C    -3.026000000    -2.849000000    -2.984000000
C    -3.793000000    -1.756000000    -2.617000000
C    -4.527000000    -1.752000000    -1.432000000
H    -5.124000000    -0.898000000    -1.121000000
C    -4.378000000    -2.834000000    -0.600000000
O    -4.763000000    -2.650000000     0.716000000
C    -3.831000000    -2.032000000     1.658000000
H    -3.043000000    -1.536000000     1.071000000
C    -4.474000000    -0.902000000     2.509000000
C    -3.902000000    -0.556000000     3.677000000
H    -2.989000000    -0.992000000     4.075000000
C    -5.608000000    -0.238000000     1.974000000
H    -6.016000000    -0.457000000     0.991000000
C    -6.171000000     0.756000000     2.731000000
O    -7.265000000     1.455000000     2.287000000
C    -5.620000000     1.093000000     3.960000000
H    -5.949000000     1.978000000     4.499000000
C    -4.492000000     0.479000000     4.399000000
O    -3.956000000     0.840000000     5.608000000
C    -2.622000000     0.692000000     5.888000000
C    -1.638000000     1.325000000     5.122000000
H    -1.860000000     1.999000000     4.298000000
C    -2.297000000    -0.161000000     6.954000000
H    -3.034000000    -0.683000000     7.559000000
C    -0.954000000    -0.314000000     7.281000000
H    -0.568000000    -0.949000000     8.075000000
C     0.053000000     0.407000000     6.588000000
H     1.096000000     0.261000000     6.858000000
C    -0.308000000     1.124000000     5.417000000
O     0.620000000     1.780000000     4.629000000
C     1.710000000     1.135000000     4.034000000
C     2.970000000     1.683000000     4.195000000
H     3.142000000     2.572000000     4.796000000
C     4.066000000     0.934000000     3.790000000
O     5.308000000     1.513000000     3.953000000
C     6.355000000     1.454000000     3.067000000
C     6.171000000     1.878000000     1.737000000
H     5.258000000     2.372000000     1.416000000
C     7.644000000     1.218000000     3.523000000
H     7.833000000     0.885000000     4.540000000
C     8.694000000     1.042000000     2.621000000
H     9.704000000     0.824000000     2.958000000
C     8.511000000     1.555000000     1.357000000
H     9.338000000     1.707000000     0.670000000
C     7.263000000     1.869000000     0.908000000
O     7.181000000     2.399000000    -0.349000000
C     6.124000000     2.264000000    -1.205000000
C     5.729000000     3.386000000    -1.923000000
H     6.254000000     4.333000000    -1.831000000
C     4.615000000     3.328000000    -2.758000000
O     4.231000000     4.424000000    -3.447000000
C     2.959000000     4.699000000    -3.746000000
C     1.881000000     4.483000000    -2.913000000
H     2.080000000     3.969000000    -1.976000000
C     2.718000000     5.189000000    -5.022000000
H     3.582000000     5.389000000    -5.651000000
C     1.428000000     5.484000000    -5.371000000
H     1.272000000     5.980000000    -6.326000000
C     0.359000000     5.194000000    -4.505000000
H    -0.687000000     5.382000000    -4.733000000
C     0.568000000     4.742000000    -3.260000000
O    -0.458000000     4.578000000    -2.349000000
C    -1.572000000     3.821000000    -2.447000000
C    -2.731000000     4.278000000    -1.839000000
H    -2.770000000     5.278000000    -1.414000000
C    -3.887000000     3.501000000    -1.850000000
O    -5.031000000     4.024000000    -1.245000000
C    -6.124000000     3.370000000    -0.691000000
C    -7.271000000     3.548000000    -1.389000000
H    -7.292000000     3.965000000    -2.392000000
C    -8.479000000     3.134000000    -0.869000000
H    -9.416000000     3.307000000    -1.393000000
C    -8.475000000     2.469000000     0.350000000
H    -9.435000000     2.198000000     0.784000000
C    -7.268000000     2.177000000     1.042000000
C    -6.047000000     2.660000000     0.498000000
H    -5.104000000     2.439000000     0.994000000
C    -1.489000000     1.122000000     0.800000000
H    -2.445000000     0.938000000     1.284000000
C    -0.885000000     0.041000000     0.101000000
H    -1.245000000    -0.984000000     0.132000000
C     0.376000000     0.220000000    -0.484000000
H     0.941000000    -0.573000000    -0.770000000
C     1.041000000     1.427000000    -0.293000000
H     2.048000000     1.600000000    -0.663000000
C     0.424000000     2.512000000     0.318000000
H     0.976000000     3.439000000     0.451000000
C    -0.861000000     2.316000000     0.907000000
C    -1.479000000     3.424000000     1.695000000
O    -1.014000000     4.538000000     1.721000000
O    -2.529000000     3.245000000     2.305000000
O    -6.221000000     5.474000000     3.539000000
H    -5.489000000     5.555000000     2.928000000
H    -6.673000000     6.316000000     3.484000000
O    -2.235000000     7.846000000     0.929000000
H    -1.390000000     7.708000000     0.500000000
H    -2.667000000     6.993000000     0.889000000
O     2.548000000     6.126000000     4.629000000
H     2.216000000     5.354000000     4.171000000
H     1.962000000     6.229000000     5.379000000
O     0.540000000     9.315000000    -1.088000000
H     1.131000000     9.781000000    -0.497000000
H     0.337000000     8.499000000    -0.630000000
O     3.509000000     4.338000000     1.228000000
H     2.683000000     3.997000000     1.571000000
H     3.263000000     4.804000000     0.429000000
O    -1.285000000     8.217000000     5.555000000
H    -0.555000000     7.800000000     6.013000000
H    -1.494000000     7.617000000     4.840000000
O     3.281000000     6.214000000    -0.751000000
H     4.106000000     6.673000000    -0.593000000
H     2.796000000     6.790000000    -1.343000000
O    -3.584000000     4.118000000     4.439000000
H    -4.539000000     4.097000000     4.384000000
H    -3.289000000     3.661000000     3.652000000
O    -3.311000000    10.188000000    -0.333000000
H    -2.806000000    10.542000000     0.399000000
H    -3.104000000     9.253000000    -0.338000000
O     1.143000000     4.370000000     3.196000000
H     0.833000000     3.735000000     3.842000000
H     0.354000000     4.637000000     2.725000000
O     0.083000000     6.646000000     0.164000000
H     0.320000000     6.023000000    -0.523000000
H    -0.151000000     6.098000000     0.914000000
O     0.734000000     9.619000000     1.861000000
H     1.485000000     9.852000000     1.315000000
H     1.077000000     8.971000000     2.475000000
O    -1.981000000     6.241000000     3.844000000
H    -2.410000000     5.444000000     4.155000000
H    -1.820000000     6.079000000     2.914000000
O    -7.437000000     6.629000000    -0.858000000
H    -6.831000000     7.329000000    -1.100000000
H    -6.872000000     5.895000000    -0.619000000
O     1.065000000     6.526000000     6.932000000
H     0.243000000     6.076000000     7.127000000
H     1.152000000     7.177000000     7.629000000
O    -3.834000000     8.753000000     3.263000000
H    -4.044000000     7.973000000     3.778000000
H    -3.255000000     8.433000000     2.571000000
O     2.510000000     7.583000000     2.432000000
H     2.593000000     6.909000000     1.758000000
H     2.611000000     7.109000000     3.258000000
O    -4.089000000     5.331000000     1.427000000
H    -3.503000000     4.866000000     2.024000000
H    -4.332000000     4.677000000     0.772000000
O    -1.453000000     5.544000000     7.481000000
H    -1.903000000     5.085000000     6.772000000
H    -1.928000000     5.287000000     8.272000000
