215
-1420.90714
C     4.032000000    -0.164000000     3.318000000
H     4.630000000    -0.311000000     2.422000000
C     2.984000000    -1.023000000     3.700000000
C     2.197000000    -0.715000000     4.821000000
H     1.381000000    -1.363000000     5.130000000
C     2.606000000    -2.142000000     2.782000000
O     3.761000000    -2.794000000     2.112000000
H     1.985000000    -1.713000000     1.982000000
O     1.930000000    -3.148000000     3.438000000
C     0.767000000    -3.655000000     2.892000000
C    -0.460000000    -3.081000000     3.305000000
H    -0.626000000    -2.393000000     4.130000000
C    -1.630000000    -3.502000000     2.635000000
O    -2.797000000    -2.827000000     2.950000000
C    -1.590000000    -4.402000000     1.589000000
C    -2.806000000    -4.804000000     0.838000000
H    -2.695000000    -5.824000000     0.465000000
C    -3.026000000    -3.704000000    -0.211000000
C    -2.557000000    -3.954000000    -1.475000000
H    -1.953000000    -4.821000000    -1.730000000
H    -3.663000000    -4.914000000     1.507000000
C    -0.358000000    -4.957000000     1.153000000
H    -0.278000000    -5.600000000     0.280000000
C     0.844000000    -4.509000000     1.734000000
C     2.152000000    -4.990000000     1.241000000
H     2.055000000    -5.961000000     0.752000000
H     2.770000000    -5.142000000     2.129000000
C     2.851000000    -4.059000000     0.282000000
C     2.561000000    -4.074000000    -1.102000000
H     1.917000000    -4.857000000    -1.494000000
C     3.653000000    -3.012000000     0.757000000
C     4.212000000    -2.160000000    -0.121000000
H     4.711000000    -1.274000000     0.265000000
C     3.966000000    -2.224000000    -1.494000000
O     4.263000000    -1.119000000    -2.259000000
C     3.236000000    -0.208000000    -2.698000000
C     3.698000000     1.134000000    -2.593000000
C     3.134000000     2.177000000    -3.324000000
H     2.344000000     1.939000000    -4.032000000
C     4.703000000     1.546000000    -1.643000000
H     5.066000000     0.969000000    -0.796000000
O     2.815000000    -0.426000000    -4.071000000
H     2.336000000    -0.290000000    -2.071000000
C     3.181000000    -3.225000000    -2.011000000
C     2.850000000    -3.255000000    -3.485000000
H     2.720000000    -4.241000000    -3.936000000
H     3.735000000    -2.771000000    -3.903000000
C     1.573000000    -2.518000000    -3.859000000
C     0.298000000    -3.130000000    -3.835000000
H     0.243000000    -4.205000000    -3.689000000
C     1.601000000    -1.144000000    -4.177000000
C     0.450000000    -0.511000000    -4.553000000
H     0.456000000     0.531000000    -4.861000000
C    -0.775000000    -1.078000000    -4.348000000
O    -1.868000000    -0.300000000    -4.497000000
C    -2.631000000     0.107000000    -3.335000000
C    -2.970000000     1.583000000    -3.364000000
C    -2.320000000     2.438000000    -4.203000000
H    -1.563000000     1.998000000    -4.848000000
C    -3.964000000     2.077000000    -2.550000000
H    -4.595000000     1.400000000    -1.981000000
O    -3.779000000    -0.822000000    -3.176000000
H    -2.058000000    -0.077000000    -2.414000000
C    -0.867000000    -2.393000000    -3.956000000
C    -2.208000000    -3.109000000    -3.917000000
H    -2.047000000    -4.168000000    -4.128000000
H    -2.817000000    -2.650000000    -4.699000000
C    -2.680000000    -2.928000000    -2.495000000
C    -3.556000000    -1.834000000    -2.197000000
C    -4.104000000    -1.678000000    -0.955000000
H    -4.618000000    -0.769000000    -0.652000000
C    -3.817000000    -2.543000000     0.027000000
O    -4.252000000    -2.280000000     1.245000000
C    -3.318000000    -1.743000000     2.198000000
H    -2.395000000    -1.385000000     1.718000000
C    -3.815000000    -0.416000000     2.956000000
C    -3.135000000     0.076000000     4.062000000
H    -2.372000000    -0.518000000     4.559000000
C    -4.817000000     0.366000000     2.375000000
H    -5.401000000     0.087000000     1.502000000
C    -5.107000000     1.590000000     2.940000000
O    -6.132000000     2.324000000     2.455000000
C    -4.462000000     2.041000000     4.067000000
H    -4.691000000     3.031000000     4.453000000
C    -3.512000000     1.286000000     4.632000000
O    -2.764000000     1.767000000     5.720000000
C    -1.825000000     1.045000000     6.440000000
C    -0.423000000     1.299000000     6.372000000
H    -0.072000000     2.227000000     5.929000000
C    -2.278000000    -0.109000000     7.122000000
H    -3.347000000    -0.305000000     7.102000000
C    -1.415000000    -1.096000000     7.631000000
H    -1.789000000    -2.002000000     8.101000000
C    -0.041000000    -0.833000000     7.449000000
H     0.681000000    -1.562000000     7.808000000
C     0.467000000     0.339000000     6.895000000
O     1.808000000     0.554000000     6.752000000
C     2.522000000     0.350000000     5.637000000
C     3.622000000     1.174000000     5.333000000
H     3.918000000     1.957000000     6.027000000
C     4.377000000     0.883000000     4.184000000
O     5.589000000     1.552000000     4.011000000
C     6.347000000     1.755000000     2.812000000
C     5.796000000     2.241000000     1.630000000
H     4.811000000     2.700000000     1.645000000
C     7.677000000     1.571000000     2.828000000
H     8.223000000     1.281000000     3.721000000
C     8.458000000     1.794000000     1.687000000
H     9.519000000     1.581000000     1.793000000
C     7.868000000     2.078000000     0.456000000
H     8.402000000     2.202000000    -0.482000000
C     6.567000000     2.431000000     0.459000000
O     6.047000000     3.212000000    -0.606000000
C     5.084000000     2.856000000    -1.491000000
C     4.482000000     3.850000000    -2.239000000
H     4.692000000     4.907000000    -2.098000000
C     3.564000000     3.519000000    -3.167000000
O     2.816000000     4.493000000    -3.783000000
C     1.870000000     4.331000000    -4.756000000
C     0.553000000     4.488000000    -4.301000000
H     0.315000000     4.716000000    -3.265000000
C     2.261000000     4.259000000    -6.088000000
H     3.314000000     4.188000000    -6.351000000
C     1.229000000     4.176000000    -7.082000000
H     1.466000000     3.975000000    -8.124000000
C    -0.134000000     4.290000000    -6.610000000
H    -0.944000000     4.296000000    -7.335000000
C    -0.456000000     4.369000000    -5.238000000
O    -1.734000000     4.635000000    -4.907000000
C    -2.541000000     3.807000000    -4.149000000
C    -3.668000000     4.241000000    -3.462000000
H    -3.883000000     5.302000000    -3.553000000
C    -4.416000000     3.395000000    -2.661000000
O    -5.536000000     3.904000000    -2.019000000
C    -6.245000000     3.244000000    -1.063000000
C    -7.403000000     2.648000000    -1.466000000
H    -7.753000000     2.841000000    -2.477000000
C    -8.298000000     1.983000000    -0.570000000
H    -9.220000000     1.575000000    -0.975000000
C    -7.853000000     1.924000000     0.723000000
H    -8.643000000     1.543000000     1.366000000
C    -6.579000000     2.436000000     1.133000000
C    -5.783000000     3.095000000     0.227000000
H    -4.943000000     3.667000000     0.613000000
C    -0.742000000     2.125000000     2.167000000
H    -1.355000000     2.746000000     2.814000000
C    -1.249000000     1.186000000     1.207000000
H    -2.325000000     1.123000000     1.070000000
C    -0.411000000     0.241000000     0.538000000
H    -0.834000000    -0.582000000    -0.091000000
C     0.984000000     0.339000000     0.743000000
H     1.709000000    -0.349000000     0.315000000
C     1.510000000     1.266000000     1.668000000
H     2.578000000     1.200000000     1.858000000
C     0.650000000     2.104000000     2.420000000
C     1.221000000     3.250000000     3.226000000
O     2.384000000     3.443000000     3.193000000
O     0.553000000     3.960000000     3.934000000
O     1.177000000     6.294000000     8.055000000
H     0.565000000     6.546000000     8.746000000
H     0.694000000     5.657000000     7.529000000
O     2.032000000     4.835000000    -0.312000000
H     1.078000000     4.809000000    -0.241000000
H     2.242000000     4.174000000    -0.972000000
O     2.750000000     3.015000000     8.713000000
H     2.242000000     3.276000000     7.945000000
H     3.518000000     3.587000000     8.698000000
O    -0.462000000     2.537000000    -1.414000000
H    -0.287000000     1.933000000    -0.692000000
H    -1.000000000     2.032000000    -2.024000000
O    -1.631000000     3.147000000     8.823000000
H    -1.285000000     3.257000000     7.937000000
H    -1.510000000     2.216000000     9.013000000
O    -2.656000000     5.157000000     5.096000000
H    -3.225000000     5.545000000     4.431000000
H    -3.241000000     4.962000000     5.828000000
O    -1.026000000     7.515000000     4.311000000
H    -0.243000000     7.206000000     3.855000000
H    -1.451000000     6.716000000     4.624000000
O     4.082000000     7.493000000     3.217000000
H     4.065000000     6.736000000     2.631000000
H     4.907000000     7.409000000     3.694000000
O     2.436000000     3.930000000     6.036000000
H     2.272000000     3.702000000     5.121000000
H     1.887000000     4.698000000     6.194000000
O     4.965000000     5.362000000     6.441000000
H     5.416000000     5.583000000     5.626000000
H     4.227000000     4.818000000     6.167000000
O    -1.484000000     4.996000000    -0.838000000
H    -1.371000000     5.027000000     0.112000000
H    -1.321000000     4.081000000    -1.069000000
O     3.695000000     5.096000000     1.757000000
H     3.220000000     5.225000000     0.937000000
H     3.118000000     4.544000000     2.284000000
O     1.268000000     6.430000000     2.940000000
H     2.183000000     6.653000000     3.113000000
H     1.199000000     5.505000000     3.177000000
O     3.088000000     7.354000000    -0.558000000
H     3.055000000     7.355000000    -1.515000000
H     2.418000000     6.723000000    -0.296000000
O    -3.652000000     6.575000000     2.722000000
H    -3.093000000     5.881000000     2.372000000
H    -3.279000000     7.383000000     2.371000000
O     6.272000000     2.837000000     7.568000000
H     6.454000000     2.021000000     8.034000000
H     5.702000000     2.577000000     6.844000000
O    -0.318000000     4.560000000     6.488000000
H    -1.217000000     4.883000000     6.434000000
H    -0.086000000     4.346000000     5.584000000
O     5.645000000     4.408000000     3.811000000
H     5.777000000     3.463000000     3.732000000
H     4.879000000     4.589000000     3.267000000
O    -1.312000000     5.500000000     2.028000000
H    -0.473000000     5.876000000     1.761000000
H    -1.111000000     5.005000000     2.822000000
