215
-1443.83511
C     3.484000000     0.225000000     3.738000000
H     4.167000000    -0.030000000     2.931000000
C     2.303000000    -0.546000000     3.837000000
C     1.376000000    -0.239000000     4.836000000
H     0.469000000    -0.836000000     4.803000000
C     2.084000000    -1.657000000     2.842000000
O     3.285000000    -2.236000000     2.443000000
H     1.539000000    -1.382000000     1.927000000
O     1.384000000    -2.723000000     3.537000000
C     0.387000000    -3.347000000     2.913000000
C    -0.906000000    -3.030000000     3.206000000
H    -1.231000000    -2.267000000     3.908000000
C    -1.974000000    -3.565000000     2.449000000
O    -3.185000000    -2.978000000     2.628000000
C    -1.700000000    -4.405000000     1.384000000
C    -2.818000000    -4.819000000     0.403000000
H    -2.545000000    -5.780000000    -0.038000000
C    -3.027000000    -3.769000000    -0.683000000
C    -2.301000000    -3.838000000    -1.820000000
H    -1.639000000    -4.692000000    -1.943000000
H    -3.750000000    -5.022000000     0.936000000
C    -0.371000000    -4.794000000     1.149000000
H    -0.138000000    -5.538000000     0.392000000
C     0.626000000    -4.314000000     1.941000000
C     2.063000000    -4.749000000     1.567000000
H     2.113000000    -5.723000000     1.077000000
H     2.545000000    -4.929000000     2.530000000
C     2.900000000    -3.728000000     0.695000000
C     2.752000000    -3.938000000    -0.719000000
H     2.248000000    -4.861000000    -0.994000000
C     3.381000000    -2.534000000     1.138000000
C     3.812000000    -1.639000000     0.253000000
H     4.148000000    -0.636000000     0.503000000
C     3.788000000    -1.900000000    -1.123000000
O     4.431000000    -1.025000000    -1.925000000
C     3.618000000     0.017000000    -2.527000000
C     4.297000000     1.360000000    -2.436000000
C     3.934000000     2.377000000    -3.336000000
H     3.188000000     2.189000000    -4.103000000
C     5.118000000     1.670000000    -1.370000000
H     5.355000000     0.931000000    -0.609000000
O     3.329000000    -0.302000000    -3.892000000
H     2.639000000     0.170000000    -2.048000000
C     3.258000000    -3.087000000    -1.667000000
C     3.166000000    -3.268000000    -3.217000000
H     3.194000000    -4.316000000    -3.522000000
H     4.137000000    -2.901000000    -3.558000000
C     2.059000000    -2.409000000    -3.726000000
C     0.778000000    -3.066000000    -3.775000000
H     0.725000000    -4.129000000    -3.552000000
C     2.188000000    -1.038000000    -4.097000000
C     1.024000000    -0.369000000    -4.507000000
H     1.060000000     0.700000000    -4.701000000
C    -0.218000000    -1.016000000    -4.500000000
O    -1.317000000    -0.241000000    -4.662000000
C    -2.162000000     0.008000000    -3.556000000
C    -2.448000000     1.506000000    -3.618000000
C    -1.427000000     2.420000000    -3.761000000
H    -0.416000000     2.077000000    -3.967000000
C    -3.740000000     1.932000000    -3.417000000
H    -4.576000000     1.248000000    -3.301000000
O    -3.368000000    -0.790000000    -3.551000000
H    -1.566000000    -0.128000000    -2.642000000
C    -0.352000000    -2.338000000    -4.097000000
C    -1.731000000    -3.074000000    -4.164000000
H    -1.669000000    -4.128000000    -4.442000000
H    -2.287000000    -2.811000000    -5.066000000
C    -2.513000000    -2.949000000    -2.823000000
C    -3.340000000    -1.792000000    -2.629000000
C    -4.063000000    -1.711000000    -1.435000000
H    -4.761000000    -0.902000000    -1.238000000
C    -3.971000000    -2.717000000    -0.500000000
O    -4.623000000    -2.520000000     0.691000000
C    -3.723000000    -1.990000000     1.678000000
H    -2.900000000    -1.664000000     1.024000000
C    -4.239000000    -0.682000000     2.423000000
C    -3.858000000    -0.425000000     3.758000000
H    -3.205000000    -1.065000000     4.346000000
C    -4.961000000     0.265000000     1.746000000
H    -5.201000000     0.037000000     0.710000000
C    -5.372000000     1.455000000     2.324000000
O    -6.114000000     2.349000000     1.680000000
C    -5.211000000     1.620000000     3.743000000
H    -5.444000000     2.589000000     4.176000000
C    -4.443000000     0.690000000     4.414000000
O    -4.092000000     0.917000000     5.783000000
C    -2.985000000     0.411000000     6.500000000
C    -1.745000000     1.043000000     6.353000000
H    -1.632000000     2.052000000     5.965000000
C    -3.032000000    -0.674000000     7.351000000
H    -3.945000000    -1.198000000     7.620000000
C    -1.896000000    -1.167000000     7.979000000
H    -2.005000000    -2.002000000     8.667000000
C    -0.685000000    -0.616000000     7.678000000
H     0.227000000    -0.982000000     8.144000000
C    -0.587000000     0.507000000     6.878000000
O     0.612000000     1.172000000     6.696000000
C     1.582000000     0.857000000     5.680000000
C     2.726000000     1.687000000     5.584000000
H     2.937000000     2.554000000     6.205000000
C     3.624000000     1.388000000     4.582000000
O     4.852000000     2.143000000     4.387000000
C     5.752000000     1.981000000     3.311000000
C     5.520000000     2.601000000     2.105000000
H     4.640000000     3.219000000     1.948000000
C     6.898000000     1.199000000     3.465000000
H     7.015000000     0.671000000     4.407000000
C     7.765000000     0.969000000     2.382000000
H     8.616000000     0.307000000     2.517000000
C     7.584000000     1.722000000     1.244000000
H     8.326000000     1.624000000     0.456000000
C     6.474000000     2.482000000     1.090000000
O     6.248000000     3.286000000    -0.024000000
C     5.566000000     2.969000000    -1.158000000
C     5.192000000     3.966000000    -2.063000000
H     5.508000000     4.994000000    -1.907000000
C     4.424000000     3.668000000    -3.171000000
O     4.046000000     4.698000000    -3.959000000
C     2.804000000     4.629000000    -4.598000000
C     1.609000000     4.771000000    -3.880000000
H     1.689000000     5.054000000    -2.833000000
C     2.707000000     4.403000000    -5.983000000
H     3.650000000     4.187000000    -6.479000000
C     1.511000000     4.258000000    -6.662000000
H     1.393000000     3.964000000    -7.702000000
C     0.365000000     4.465000000    -5.904000000
H    -0.583000000     4.289000000    -6.406000000
C     0.415000000     4.646000000    -4.515000000
O    -0.771000000     4.762000000    -3.733000000
C    -1.749000000     3.806000000    -3.700000000
C    -3.080000000     4.227000000    -3.429000000
H    -3.245000000     5.287000000    -3.255000000
C    -4.052000000     3.254000000    -3.267000000
O    -5.311000000     3.605000000    -2.806000000
C    -6.000000000     2.899000000    -1.886000000
C    -6.998000000     2.011000000    -2.329000000
H    -7.165000000     1.955000000    -3.401000000
C    -7.610000000     1.126000000    -1.450000000
H    -8.425000000     0.482000000    -1.771000000
C    -7.315000000     1.251000000    -0.077000000
H    -7.873000000     0.549000000     0.537000000
C    -6.368000000     2.236000000     0.333000000
C    -5.730000000     3.049000000    -0.564000000
H    -4.968000000     3.780000000    -0.307000000
C    -1.617000000     1.360000000     0.427000000
H    -2.702000000     1.408000000     0.389000000
C    -0.900000000     0.286000000    -0.057000000
H    -1.385000000    -0.579000000    -0.501000000
C     0.471000000     0.431000000    -0.112000000
H     1.014000000    -0.408000000    -0.499000000
C     1.086000000     1.572000000     0.212000000
H     2.173000000     1.584000000     0.178000000
C     0.361000000     2.693000000     0.647000000
H     0.870000000     3.616000000     0.912000000
C    -0.980000000     2.557000000     0.871000000
C    -1.825000000     3.748000000     1.320000000
O    -1.218000000     4.818000000     1.584000000
O    -2.975000000     3.703000000     1.415000000
O    -7.178000000     6.060000000     4.269000000
H    -6.837000000     5.623000000     3.489000000
H    -8.107000000     6.193000000     4.083000000
O    -4.660000000     7.890000000     0.995000000
H    -4.616000000     8.196000000     1.901000000
H    -4.865000000     8.675000000     0.487000000
O    -8.669000000     3.184000000     2.513000000
H    -7.932000000     3.220000000     1.904000000
H    -8.321000000     2.738000000     3.285000000
O    -3.308000000     5.738000000    -0.170000000
H    -3.756000000     6.403000000     0.352000000
H    -3.098000000     5.044000000     0.455000000
O     0.366000000     7.917000000    -2.559000000
H     1.042000000     8.484000000    -2.188000000
H     0.025000000     7.429000000    -1.809000000
O     3.154000000     5.375000000     1.300000000
H     2.660000000     5.553000000     2.101000000
H     3.023000000     6.154000000     0.760000000
O    -1.133000000     6.462000000     5.800000000
H    -0.506000000     5.740000000     5.810000000
H    -1.619000000     6.346000000     4.983000000
O    -7.169000000     6.396000000     0.879000000
H    -7.282000000     7.346000000     0.894000000
H    -7.178000000     6.168000000    -0.051000000
O    -4.558000000     4.800000000     5.987000000
H    -5.242000000     5.447000000     5.812000000
H    -3.995000000     4.831000000     5.214000000
O    -2.429000000     7.800000000    -3.779000000
H    -1.610000000     7.435000000    -3.444000000
H    -2.195000000     8.680000000    -4.075000000
O    -6.496000000     6.196000000    -2.168000000
H    -5.839000000     6.710000000    -2.636000000
H    -6.235000000     5.286000000    -2.311000000
O     0.804000000     5.689000000     2.884000000
H     0.841000000     5.234000000     3.725000000
H     0.130000000     5.223000000     2.389000000
O    -0.563000000     7.026000000    -0.166000000
H    -1.409000000     6.580000000    -0.197000000
H    -0.156000000     6.713000000     0.641000000
O    -2.838000000     6.155000000     3.470000000
H    -3.753000000     5.981000000     3.251000000
H    -2.344000000     5.504000000     2.971000000
O    -1.427000000     9.605000000    -0.753000000
H    -1.180000000     8.770000000    -0.355000000
H    -0.606000000     9.958000000    -1.096000000
O     0.665000000     4.167000000     5.285000000
H     0.084000000     3.407000000     5.312000000
H     1.366000000     3.954000000     5.901000000
O    -2.993000000     9.068000000     3.453000000
H    -3.809000000     9.070000000     3.953000000
H    -2.888000000     8.159000000     3.171000000
O     0.659000000     8.346000000     2.843000000
H     0.523000000     7.403000000     2.940000000
H     1.246000000     8.427000000     2.091000000
O    -5.062000000     5.215000000     2.379000000
H    -4.507000000     4.513000000     2.038000000
H    -5.536000000     5.539000000     1.613000000
