215
-1437.68987
C     3.664000000    -0.018000000     4.279000000
H     4.408000000    -0.372000000     3.570000000
C     2.423000000    -0.630000000     4.240000000
C     1.531000000    -0.200000000     5.164000000
H     0.567000000    -0.699000000     5.120000000
C     2.172000000    -1.817000000     3.294000000
O     3.355000000    -2.543000000     2.902000000
H     1.750000000    -1.492000000     2.331000000
O     1.330000000    -2.706000000     3.935000000
C     0.277000000    -3.317000000     3.209000000
C    -0.984000000    -2.706000000     3.272000000
H    -1.215000000    -1.915000000     3.981000000
C    -2.033000000    -3.111000000     2.463000000
O    -3.180000000    -2.347000000     2.498000000
C    -1.776000000    -4.153000000     1.522000000
C    -2.968000000    -4.656000000     0.596000000
H    -2.769000000    -5.678000000     0.267000000
C    -3.079000000    -3.825000000    -0.659000000
C    -2.186000000    -4.135000000    -1.736000000
H    -1.655000000    -5.070000000    -1.894000000
H    -3.881000000    -4.538000000     1.183000000
C    -0.501000000    -4.680000000     1.405000000
H    -0.261000000    -5.550000000     0.799000000
C     0.532000000    -4.268000000     2.212000000
C     1.888000000    -4.908000000     1.992000000
H     1.722000000    -5.932000000     1.650000000
H     2.399000000    -4.961000000     2.956000000
C     2.770000000    -4.050000000     1.083000000
C     2.781000000    -4.321000000    -0.317000000
H     2.164000000    -5.123000000    -0.715000000
C     3.503000000    -2.905000000     1.654000000
C     4.235000000    -2.051000000     0.798000000
H     4.798000000    -1.166000000     1.083000000
C     4.232000000    -2.350000000    -0.527000000
O     4.760000000    -1.363000000    -1.342000000
C     3.788000000    -0.480000000    -2.036000000
C     4.034000000     1.039000000    -1.804000000
C     3.297000000     1.908000000    -2.621000000
H     2.627000000     1.556000000    -3.402000000
C     4.870000000     1.546000000    -0.822000000
H     5.412000000     0.879000000    -0.156000000
O     3.640000000    -0.799000000    -3.433000000
H     2.829000000    -0.675000000    -1.532000000
C     3.524000000    -3.450000000    -1.097000000
C     3.458000000    -3.567000000    -2.630000000
H     3.357000000    -4.641000000    -2.801000000
H     4.395000000    -3.313000000    -3.130000000
C     2.310000000    -2.769000000    -3.102000000
C     1.061000000    -3.381000000    -3.219000000
H     0.976000000    -4.349000000    -2.732000000
C     2.471000000    -1.461000000    -3.630000000
C     1.402000000    -0.829000000    -4.278000000
H     1.469000000     0.157000000    -4.730000000
C     0.149000000    -1.538000000    -4.385000000
O    -0.911000000    -0.841000000    -4.888000000
C    -1.860000000    -0.301000000    -4.007000000
C    -2.481000000     1.096000000    -4.353000000
C    -1.768000000     1.992000000    -5.163000000
H    -0.832000000     1.674000000    -5.615000000
C    -3.686000000     1.483000000    -3.827000000
H    -4.273000000     0.832000000    -3.184000000
O    -2.940000000    -1.205000000    -3.848000000
H    -1.398000000    -0.258000000    -3.009000000
C    -0.003000000    -2.804000000    -3.906000000
C    -1.297000000    -3.698000000    -3.978000000
H    -1.092000000    -4.770000000    -4.013000000
H    -1.798000000    -3.571000000    -4.940000000
C    -2.184000000    -3.276000000    -2.854000000
C    -2.942000000    -2.127000000    -2.868000000
C    -3.760000000    -1.855000000    -1.800000000
H    -4.278000000    -0.901000000    -1.747000000
C    -3.804000000    -2.634000000    -0.702000000
O    -4.339000000    -2.052000000     0.447000000
C    -3.502000000    -1.449000000     1.476000000
H    -2.524000000    -1.202000000     1.037000000
C    -3.995000000    -0.180000000     2.055000000
C    -3.530000000     0.304000000     3.278000000
H    -2.853000000    -0.242000000     3.931000000
C    -4.843000000     0.663000000     1.350000000
H    -5.183000000     0.386000000     0.355000000
C    -5.199000000     1.971000000     1.787000000
O    -5.963000000     2.855000000     1.061000000
C    -4.857000000     2.323000000     3.055000000
H    -5.257000000     3.272000000     3.402000000
C    -3.965000000     1.526000000     3.815000000
O    -3.472000000     2.066000000     5.024000000
C    -2.654000000     1.314000000     5.850000000
C    -1.303000000     1.692000000     5.929000000
H    -0.912000000     2.442000000     5.246000000
C    -3.153000000     0.356000000     6.768000000
H    -4.213000000     0.174000000     6.614000000
C    -2.315000000    -0.351000000     7.617000000
H    -2.661000000    -1.199000000     8.202000000
C    -0.923000000    -0.118000000     7.607000000
H    -0.242000000    -0.568000000     8.325000000
C    -0.468000000     1.049000000     6.882000000
O     0.838000000     1.403000000     6.902000000
C     1.737000000     0.975000000     5.926000000
C     2.996000000     1.505000000     5.972000000
H     3.099000000     2.260000000     6.748000000
C     3.979000000     1.055000000     5.112000000
O     5.215000000     1.725000000     5.017000000
C     5.914000000     1.948000000     3.906000000
C     5.297000000     2.543000000     2.757000000
H     4.211000000     2.567000000     2.765000000
C     7.325000000     1.986000000     4.042000000
H     7.781000000     1.813000000     5.014000000
C     8.104000000     2.228000000     2.874000000
H     9.180000000     2.109000000     2.972000000
C     7.489000000     2.629000000     1.654000000
H     8.103000000     2.948000000     0.816000000
C     6.119000000     2.819000000     1.653000000
O     5.505000000     3.416000000     0.567000000
C     4.810000000     2.889000000    -0.478000000
C     4.116000000     3.758000000    -1.391000000
H     4.057000000     4.837000000    -1.268000000
C     3.333000000     3.297000000    -2.410000000
O     2.583000000     4.192000000    -3.111000000
C     2.017000000     4.055000000    -4.410000000
C     0.636000000     4.445000000    -4.587000000
H     0.171000000     4.984000000    -3.765000000
C     2.750000000     3.589000000    -5.538000000
H     3.823000000     3.448000000    -5.429000000
C     2.112000000     3.455000000    -6.746000000
H     2.782000000     3.193000000    -7.561000000
C     0.759000000     3.743000000    -6.860000000
H     0.182000000     3.665000000    -7.778000000
C    -0.016000000     4.155000000    -5.739000000
O    -1.334000000     4.184000000    -5.921000000
C    -2.146000000     3.301000000    -5.314000000
C    -3.446000000     3.636000000    -4.890000000
H    -3.893000000     4.552000000    -5.267000000
C    -4.195000000     2.766000000    -4.149000000
O    -5.531000000     3.009000000    -3.890000000
C    -6.250000000     2.842000000    -2.637000000
C    -7.587000000     2.476000000    -2.806000000
H    -8.054000000     2.364000000    -3.781000000
C    -8.361000000     2.299000000    -1.648000000
H    -9.414000000     2.073000000    -1.798000000
C    -7.833000000     2.273000000    -0.366000000
H    -8.400000000     1.925000000     0.494000000
C    -6.458000000     2.600000000    -0.182000000
C    -5.717000000     2.856000000    -1.336000000
H    -4.656000000     3.076000000    -1.244000000
C    -1.038000000     2.366000000    -0.629000000
H    -1.877000000     2.911000000    -1.055000000
C    -1.239000000     1.029000000    -0.406000000
H    -2.179000000     0.521000000    -0.604000000
C    -0.270000000     0.241000000     0.176000000
H    -0.546000000    -0.799000000     0.409000000
C     0.967000000     0.822000000     0.505000000
H     1.777000000     0.171000000     0.824000000
C     1.181000000     2.182000000     0.210000000
H     2.056000000     2.699000000     0.596000000
C     0.125000000     2.999000000    -0.308000000
C     0.279000000     4.506000000    -0.379000000
O     1.346000000     5.032000000    -0.237000000
O    -0.709000000     5.170000000    -0.315000000
O    -1.305000000     8.605000000    -2.821000000
H    -1.728000000     8.011000000    -3.442000000
H    -0.620000000     8.076000000    -2.412000000
O     1.354000000     7.012000000     2.561000000
H     0.944000000     6.691000000     3.364000000
H     1.747000000     6.235000000     2.165000000
O     3.772000000     7.225000000    -3.660000000
H     3.001000000     7.126000000    -4.218000000
H     3.693000000     8.106000000    -3.295000000
O    -0.878000000     7.527000000     1.157000000
H    -0.678000000     6.921000000     0.444000000
H    -0.076000000     7.559000000     1.678000000
O     4.575000000     8.170000000     1.928000000
H     4.603000000     9.050000000     1.554000000
H     3.986000000     7.683000000     1.351000000
O     2.099000000     4.214000000     4.133000000
H     1.633000000     3.422000000     3.866000000
H     2.574000000     4.489000000     3.349000000
O    -2.105000000     4.570000000     1.750000000
H    -1.470000000     4.759000000     1.059000000
H    -2.917000000     4.976000000     1.448000000
O    -2.426000000     7.891000000     3.481000000
H    -2.840000000     8.754000000     3.455000000
H    -1.904000000     7.852000000     2.680000000
O    -0.399000000     2.530000000     2.644000000
H    -1.141000000     3.126000000     2.539000000
H    -0.370000000     2.038000000     1.823000000
O    -2.108000000     9.638000000    -0.268000000
H    -1.923000000     9.485000000    -1.195000000
H    -1.542000000     9.020000000     0.194000000
O     0.760000000     7.094000000    -2.098000000
H     1.158000000     6.733000000    -2.890000000
H     0.558000000     6.328000000    -1.561000000
O     2.552000000     7.963000000    -0.198000000
H     2.132000000     7.375000000    -0.826000000
H     1.826000000     8.354000000     0.288000000
O    -2.270000000     5.366000000     4.491000000
H    -2.374000000     6.258000000     4.161000000
H    -2.245000000     4.821000000     3.704000000
O    -4.751000000     7.121000000    -3.400000000
H    -3.858000000     6.839000000    -3.203000000
H    -4.700000000     7.474000000    -4.289000000
O     1.299000000     7.191000000    -5.036000000
H     0.382000000     7.371000000    -4.827000000
H     1.268000000     6.748000000    -5.884000000
O     3.129000000     5.339000000     1.703000000
H     2.646000000     5.123000000     0.905000000
H     4.030000000     5.074000000     1.517000000
O     4.020000000     9.316000000    -2.003000000
H     3.336000000     9.883000000    -2.358000000
H     3.588000000     8.829000000    -1.301000000
O    -4.696000000     5.678000000     0.913000000
H    -5.545000000     5.500000000     1.317000000
H    -4.707000000     6.619000000     0.737000000
O    -2.907000000     5.410000000    -1.777000000
H    -3.525000000     5.422000000    -1.046000000
H    -2.052000000     5.281000000    -1.367000000
