215
-1453.76064
C     2.350000000     0.468000000     5.056000000
H     3.132000000    -0.056000000     4.513000000
C     1.104000000    -0.089000000     4.840000000
C     0.042000000     0.665000000     5.262000000
H    -0.926000000     0.227000000     5.031000000
C     0.916000000    -1.371000000     4.059000000
O     2.139000000    -2.179000000     4.072000000
H     0.889000000    -1.018000000     3.017000000
O    -0.208000000    -2.225000000     4.555000000
C    -1.000000000    -2.746000000     3.532000000
C    -2.203000000    -2.132000000     3.287000000
H    -2.548000000    -1.253000000     3.825000000
C    -3.037000000    -2.671000000     2.272000000
O    -4.192000000    -1.981000000     1.911000000
C    -2.580000000    -3.829000000     1.557000000
C    -3.392000000    -4.420000000     0.394000000
H    -3.154000000    -5.482000000     0.311000000
C    -3.117000000    -3.724000000    -0.956000000
C    -2.105000000    -4.168000000    -1.849000000
H    -1.532000000    -5.019000000    -1.489000000
H    -4.466000000    -4.415000000     0.593000000
C    -1.420000000    -4.460000000     1.879000000
H    -1.041000000    -5.269000000     1.260000000
C    -0.632000000    -3.930000000     2.933000000
C     0.752000000    -4.639000000     3.181000000
H     0.797000000    -5.651000000     2.774000000
H     1.009000000    -4.780000000     4.233000000
C     1.849000000    -3.878000000     2.377000000
C     2.206000000    -4.308000000     1.105000000
H     1.679000000    -5.163000000     0.689000000
C     2.546000000    -2.787000000     2.950000000
C     3.495000000    -2.162000000     2.164000000
H     3.998000000    -1.267000000     2.521000000
C     3.745000000    -2.562000000     0.841000000
O     4.617000000    -1.799000000     0.149000000
C     4.050000000    -0.945000000    -0.968000000
C     4.606000000     0.443000000    -0.817000000
C     4.909000000     1.232000000    -1.981000000
H     4.649000000     0.778000000    -2.934000000
C     4.712000000     1.053000000     0.412000000
H     4.630000000     0.423000000     1.294000000
O     4.212000000    -1.641000000    -2.223000000
H     2.984000000    -0.758000000    -0.768000000
C     3.144000000    -3.653000000     0.313000000
C     3.481000000    -4.118000000    -1.062000000
H     3.301000000    -5.193000000    -1.128000000
H     4.538000000    -3.931000000    -1.265000000
C     2.531000000    -3.394000000    -2.083000000
C     1.360000000    -3.969000000    -2.539000000
H     1.113000000    -4.892000000    -2.021000000
C     3.015000000    -2.187000000    -2.655000000
C     2.198000000    -1.504000000    -3.612000000
H     2.611000000    -0.560000000    -3.959000000
C     1.022000000    -2.141000000    -3.998000000
O     0.171000000    -1.360000000    -4.801000000
C    -0.965000000    -0.774000000    -4.192000000
C    -1.100000000     0.685000000    -4.536000000
C    -0.010000000     1.523000000    -4.387000000
H     0.917000000     1.020000000    -4.126000000
C    -2.399000000     1.255000000    -4.860000000
H    -3.343000000     0.716000000    -4.866000000
O    -2.186000000    -1.524000000    -4.412000000
H    -0.686000000    -0.835000000    -3.130000000
C     0.584000000    -3.358000000    -3.483000000
C    -0.683000000    -3.979000000    -3.956000000
H    -0.612000000    -5.065000000    -3.866000000
H    -0.973000000    -3.921000000    -5.007000000
C    -1.859000000    -3.522000000    -3.087000000
C    -2.530000000    -2.294000000    -3.362000000
C    -3.547000000    -1.826000000    -2.495000000
H    -4.064000000    -0.910000000    -2.768000000
C    -3.905000000    -2.580000000    -1.339000000
O    -4.838000000    -2.051000000    -0.474000000
C    -4.172000000    -1.317000000     0.600000000
H    -3.104000000    -1.122000000     0.425000000
C    -4.631000000     0.115000000     0.710000000
C    -4.281000000     0.882000000     1.782000000
H    -3.545000000     0.524000000     2.496000000
C    -5.402000000     0.717000000    -0.267000000
H    -5.732000000     0.176000000    -1.150000000
C    -5.717000000     2.097000000    -0.269000000
O    -6.471000000     2.786000000    -1.219000000
C    -5.333000000     2.841000000     0.864000000
H    -5.550000000     3.898000000     0.996000000
C    -4.686000000     2.221000000     1.892000000
O    -4.349000000     2.996000000     3.038000000
C    -3.955000000     2.475000000     4.260000000
C    -2.650000000     2.763000000     4.689000000
H    -1.883000000     3.313000000     4.150000000
C    -4.785000000     1.697000000     5.072000000
H    -5.812000000     1.549000000     4.749000000
C    -4.344000000     1.164000000     6.315000000
H    -4.932000000     0.508000000     6.952000000
C    -3.038000000     1.411000000     6.670000000
H    -2.546000000     1.009000000     7.552000000
C    -2.276000000     2.276000000     5.912000000
O    -0.989000000     2.584000000     6.315000000
C     0.147000000     1.909000000     5.894000000
C     1.461000000     2.393000000     6.196000000
H     1.635000000     3.376000000     6.626000000
C     2.572000000     1.668000000     5.728000000
O     3.829000000     2.114000000     6.033000000
C     4.873000000     2.057000000     5.050000000
C     4.666000000     2.703000000     3.823000000
H     3.681000000     3.089000000     3.573000000
C     6.118000000     1.403000000     5.296000000
H     6.210000000     1.016000000     6.308000000
C     7.136000000     1.321000000     4.314000000
H     8.104000000     0.848000000     4.463000000
C     6.814000000     1.867000000     3.050000000
H     7.487000000     1.752000000     2.204000000
C     5.590000000     2.539000000     2.816000000
O     5.286000000     3.034000000     1.640000000
C     5.276000000     2.345000000     0.512000000
C     5.586000000     3.078000000    -0.635000000
H     5.876000000     4.113000000    -0.472000000
C     5.401000000     2.548000000    -1.909000000
O     5.529000000     3.380000000    -2.972000000
C     4.611000000     3.335000000    -3.994000000
C     3.238000000     3.503000000    -3.730000000
H     2.994000000     3.718000000    -2.693000000
C     4.991000000     3.328000000    -5.313000000
H     6.066000000     3.318000000    -5.475000000
C     4.009000000     3.291000000    -6.361000000
H     4.375000000     3.288000000    -7.384000000
C     2.655000000     3.191000000    -6.055000000
H     1.907000000     3.265000000    -6.841000000
C     2.242000000     3.374000000    -4.721000000
O     0.957000000     3.711000000    -4.431000000
C    -0.092000000     2.897000000    -4.670000000
C    -1.353000000     3.420000000    -4.868000000
H    -1.398000000     4.506000000    -4.849000000
C    -2.496000000     2.623000000    -4.919000000
O    -3.696000000     3.263000000    -5.045000000
C    -4.854000000     2.804000000    -4.482000000
C    -5.890000000     2.232000000    -5.216000000
H    -5.746000000     2.051000000    -6.278000000
C    -7.113000000     1.843000000    -4.641000000
H    -7.788000000     1.388000000    -5.362000000
C    -7.350000000     2.134000000    -3.309000000
H    -8.335000000     1.946000000    -2.891000000
C    -6.305000000     2.624000000    -2.545000000
C    -5.139000000     3.092000000    -3.155000000
H    -4.324000000     3.523000000    -2.579000000
C    -1.566000000     2.123000000    -1.363000000
H    -2.269000000     2.899000000    -1.658000000
C    -1.908000000     0.757000000    -1.169000000
H    -2.937000000     0.426000000    -1.280000000
C    -0.882000000    -0.171000000    -0.774000000
H    -1.120000000    -1.189000000    -0.612000000
C     0.359000000     0.261000000    -0.530000000
H     1.084000000    -0.446000000    -0.135000000
C     0.764000000     1.576000000    -0.785000000
H     1.780000000     1.874000000    -0.540000000
C    -0.235000000     2.547000000    -1.147000000
C     0.126000000     3.982000000    -1.215000000
O     1.172000000     4.352000000    -0.628000000
O    -0.671000000     4.777000000    -1.737000000
O    -2.636000000     7.674000000     3.188000000
H    -2.941000000     7.097000000     2.488000000
H    -2.016000000     7.141000000     3.685000000
O    -2.304000000     8.580000000    -0.342000000
H    -1.398000000     8.877000000    -0.254000000
H    -2.231000000     7.660000000    -0.596000000
O     2.636000000     7.289000000    -2.993000000
H     2.143000000     7.528000000    -3.778000000
H     3.532000000     7.570000000    -3.179000000
O    -0.617000000     5.843000000     3.474000000
H    -0.045000000     6.235000000     4.134000000
H    -0.026000000     5.344000000     2.911000000
O    -0.340000000     9.235000000    -2.560000000
H    -1.280000000     9.363000000    -2.689000000
H    -0.157000000     8.385000000    -2.960000000
O     0.426000000     7.162000000    -0.863000000
H     0.259000000     6.240000000    -0.670000000
H     1.153000000     7.149000000    -1.486000000
O     0.755000000     8.450000000     1.739000000
H     0.686000000     7.703000000     1.145000000
H    -0.112000000     8.519000000     2.139000000
O     1.782000000     3.861000000     1.812000000
H     1.268000000     3.094000000     2.065000000
H     1.624000000     3.955000000     0.872000000
O     1.294000000     6.770000000    -6.213000000
H     1.809000000     5.978000000    -6.059000000
H     0.715000000     6.830000000    -5.454000000
O    -1.808000000     3.679000000     1.575000000
H    -2.644000000     3.233000000     1.709000000
H    -1.982000000     4.310000000     0.876000000
O    -2.819000000     5.897000000    -1.754000000
H    -3.096000000     5.763000000    -2.660000000
H    -2.047000000     5.340000000    -1.654000000
O     2.993000000     9.410000000    -0.794000000
H     2.258000000     8.891000000    -1.123000000
H     2.826000000    10.295000000    -1.118000000
O     0.012000000     2.046000000     2.517000000
H    -0.627000000     2.540000000     2.004000000
H    -0.502000000     1.356000000     2.937000000
O    -3.014000000     6.797000000    -4.370000000
H    -3.884000000     6.563000000    -4.692000000
H    -3.085000000     7.722000000    -4.137000000
O    -3.348000000     6.119000000     0.789000000
H    -4.300000000     6.153000000     0.877000000
H    -3.197000000     6.054000000    -0.154000000
O     5.005000000     7.623000000    -0.091000000
H     4.570000000     6.779000000    -0.216000000
H     4.340000000     8.272000000    -0.324000000
O     3.313000000     5.885000000    -0.944000000
H     3.109000000     6.266000000    -1.798000000
H     2.608000000     5.256000000    -0.787000000
O     4.077000000     5.360000000     2.341000000
H     3.224000000     5.074000000     2.012000000
H     4.686000000     4.683000000     2.047000000
O    -0.081000000     6.749000000    -3.651000000
H    -1.002000000     6.919000000    -3.852000000
H    -0.091000000     5.930000000    -3.156000000
