215
-1428.20958
C     2.340000000     0.453000000     4.706000000
H     3.176000000     0.128000000     4.092000000
C     1.271000000    -0.442000000     4.886000000
C     0.181000000    -0.091000000     5.613000000
H    -0.669000000    -0.767000000     5.662000000
C     1.333000000    -1.760000000     4.131000000
O     2.673000000    -2.304000000     3.919000000
H     0.907000000    -1.482000000     3.156000000
O     0.367000000    -2.687000000     4.490000000
C    -0.264000000    -3.362000000     3.530000000
C    -1.546000000    -2.873000000     3.282000000
H    -2.004000000    -2.129000000     3.928000000
C    -2.327000000    -3.283000000     2.209000000
O    -3.494000000    -2.598000000     1.972000000
C    -1.779000000    -4.280000000     1.353000000
C    -2.683000000    -4.833000000     0.288000000
H    -2.436000000    -5.871000000     0.054000000
C    -2.566000000    -3.910000000    -0.940000000
C    -1.596000000    -4.260000000    -1.884000000
H    -0.944000000    -5.113000000    -1.711000000
H    -3.710000000    -4.835000000     0.659000000
C    -0.538000000    -4.833000000     1.614000000
H    -0.118000000    -5.525000000     0.887000000
C     0.284000000    -4.264000000     2.602000000
C     1.768000000    -4.754000000     2.667000000
H     1.938000000    -5.659000000     2.080000000
H     2.003000000    -4.960000000     3.713000000
C     2.622000000    -3.699000000     1.978000000
C     2.833000000    -3.879000000     0.618000000
H     2.507000000    -4.774000000     0.094000000
C     3.087000000    -2.544000000     2.608000000
C     3.716000000    -1.552000000     1.829000000
H     3.996000000    -0.594000000     2.259000000
C     4.015000000    -1.827000000     0.497000000
O     4.579000000    -0.752000000    -0.239000000
C     3.786000000    -0.069000000    -1.165000000
C     4.106000000     1.400000000    -1.246000000
C     3.562000000     2.201000000    -2.263000000
H     3.025000000     1.777000000    -3.108000000
C     4.575000000     1.985000000    -0.124000000
H     4.763000000     1.458000000     0.808000000
O     3.973000000    -0.594000000    -2.507000000
H     2.741000000    -0.227000000    -0.858000000
C     3.568000000    -2.958000000    -0.126000000
C     3.967000000    -3.239000000    -1.525000000
H     4.033000000    -4.322000000    -1.647000000
H     4.916000000    -2.772000000    -1.797000000
C     2.859000000    -2.683000000    -2.465000000
C     1.774000000    -3.509000000    -2.865000000
H     1.773000000    -4.564000000    -2.604000000
C     2.999000000    -1.414000000    -2.946000000
C     2.015000000    -0.889000000    -3.798000000
H     2.116000000     0.133000000    -4.154000000
C     0.924000000    -1.687000000    -4.197000000
O     0.039000000    -1.046000000    -4.930000000
C    -1.176000000    -0.564000000    -4.223000000
C    -1.522000000     0.825000000    -4.857000000
C    -0.534000000     1.511000000    -5.634000000
H     0.430000000     1.065000000    -5.866000000
C    -2.630000000     1.539000000    -4.454000000
H    -3.357000000     1.120000000    -3.763000000
O    -2.175000000    -1.599000000    -4.394000000
H    -0.998000000    -0.450000000    -3.143000000
C     0.789000000    -2.976000000    -3.751000000
C    -0.427000000    -3.773000000    -4.013000000
H    -0.205000000    -4.842000000    -4.048000000
H    -0.678000000    -3.528000000    -5.047000000
C    -1.568000000    -3.554000000    -3.082000000
C    -2.355000000    -2.479000000    -3.311000000
C    -3.334000000    -2.071000000    -2.373000000
H    -3.985000000    -1.207000000    -2.476000000
C    -3.384000000    -2.756000000    -1.202000000
O    -4.203000000    -2.222000000    -0.297000000
C    -3.666000000    -1.602000000     0.880000000
H    -2.602000000    -1.386000000     0.701000000
C    -4.449000000    -0.352000000     1.349000000
C    -4.696000000    -0.051000000     2.716000000
H    -4.433000000    -0.693000000     3.554000000
C    -4.804000000     0.600000000     0.410000000
H    -4.626000000     0.361000000    -0.635000000
C    -5.448000000     1.791000000     0.855000000
O    -5.963000000     2.751000000    -0.027000000
C    -5.556000000     2.025000000     2.142000000
H    -5.975000000     2.981000000     2.444000000
C    -5.169000000     1.174000000     3.125000000
O    -5.285000000     1.548000000     4.470000000
C    -4.350000000     1.202000000     5.419000000
C    -3.014000000     1.657000000     5.597000000
H    -2.638000000     2.509000000     5.037000000
C    -4.798000000     0.135000000     6.222000000
H    -5.743000000    -0.369000000     6.036000000
C    -3.982000000    -0.392000000     7.295000000
H    -4.255000000    -1.282000000     7.857000000
C    -2.653000000     0.132000000     7.448000000
H    -1.996000000    -0.325000000     8.184000000
C    -2.186000000     1.152000000     6.604000000
O    -0.975000000     1.691000000     6.864000000
C     0.165000000     1.218000000     6.187000000
C     1.219000000     2.074000000     6.061000000
H     1.188000000     3.057000000     6.522000000
C     2.337000000     1.697000000     5.334000000
O     3.474000000     2.480000000     5.383000000
C     4.464000000     2.464000000     4.440000000
C     4.245000000     3.205000000     3.265000000
H     3.242000000     3.593000000     3.106000000
C     5.733000000     1.959000000     4.820000000
H     5.830000000     1.445000000     5.773000000
C     6.696000000     1.965000000     3.801000000
H     7.672000000     1.510000000     3.949000000
C     6.480000000     2.644000000     2.618000000
H     7.218000000     2.520000000     1.830000000
C     5.243000000     3.305000000     2.314000000
O     4.985000000     3.942000000     1.189000000
C     4.663000000     3.369000000     0.014000000
C     4.210000000     4.147000000    -1.012000000
H     4.401000000     5.216000000    -1.051000000
C     3.866000000     3.593000000    -2.195000000
O     3.414000000     4.429000000    -3.191000000
C     3.162000000     3.935000000    -4.412000000
C     1.826000000     3.857000000    -4.848000000
H     0.970000000     4.056000000    -4.208000000
C     4.177000000     3.595000000    -5.368000000
H     5.216000000     3.773000000    -5.102000000
C     3.865000000     3.231000000    -6.631000000
H     4.699000000     2.957000000    -7.273000000
C     2.555000000     3.198000000    -7.035000000
H     2.299000000     2.864000000    -8.037000000
C     1.548000000     3.597000000    -6.224000000
O     0.258000000     3.508000000    -6.665000000
C    -0.723000000     2.850000000    -6.001000000
C    -1.892000000     3.525000000    -5.545000000
H    -1.892000000     4.601000000    -5.697000000
C    -2.791000000     2.883000000    -4.740000000
O    -3.955000000     3.607000000    -4.303000000
C    -4.967000000     3.060000000    -3.540000000
C    -5.781000000     2.063000000    -4.134000000
H    -5.635000000     1.753000000    -5.165000000
C    -6.726000000     1.391000000    -3.349000000
H    -7.437000000     0.776000000    -3.893000000
C    -6.773000000     1.705000000    -2.004000000
H    -7.550000000     1.221000000    -1.418000000
C    -5.871000000     2.604000000    -1.394000000
C    -4.951000000     3.275000000    -2.153000000
H    -4.217000000     3.926000000    -1.685000000
C    -0.368000000     2.188000000    -0.941000000
H    -0.899000000     2.851000000    -1.619000000
C    -0.801000000     0.876000000    -0.633000000
H    -1.656000000     0.558000000    -1.226000000
C    -0.151000000     0.073000000     0.241000000
H    -0.551000000    -0.939000000     0.477000000
C     0.901000000     0.594000000     1.020000000
H     1.380000000     0.000000000     1.794000000
C     1.342000000     1.954000000     0.777000000
H     2.161000000     2.388000000     1.346000000
C     0.661000000     2.710000000    -0.150000000
C     1.084000000     4.164000000    -0.352000000
O     1.524000000     4.776000000     0.593000000
O     0.547000000     4.716000000    -1.218000000
O     1.756000000     9.556000000    -0.884000000
H     1.549000000     8.701000000    -1.262000000
H     1.015000000    10.111000000    -1.129000000
O     3.441000000     6.716000000     0.853000000
H     3.158000000     7.404000000     0.251000000
H     2.700000000     6.111000000     0.890000000
O     0.295000000     7.183000000    -5.527000000
H     0.803000000     7.790000000    -4.988000000
H    -0.123000000     6.596000000    -4.897000000
O    -0.909000000     5.688000000     5.462000000
H    -0.973000000     5.160000000     4.666000000
H     0.005000000     5.969000000     5.490000000
O    -2.317000000     7.632000000    -1.437000000
H    -2.688000000     8.182000000    -2.127000000
H    -2.728000000     7.948000000    -0.632000000
O     1.061000000     4.797000000     3.205000000
H     0.531000000     4.025000000     3.400000000
H     1.274000000     4.713000000     2.275000000
O    -2.412000000     4.381000000     2.150000000
H    -1.878000000     5.083000000     1.776000000
H    -2.836000000     3.975000000     1.394000000
O     6.171000000     6.866000000     0.862000000
H     5.255000000     6.663000000     1.052000000
H     6.132000000     7.495000000     0.141000000
O    -0.675000000     6.400000000     0.941000000
H    -1.011000000     6.833000000     0.156000000
H     0.056000000     5.869000000     0.626000000
O     4.099000000     7.200000000    -3.559000000
H     4.681000000     6.445000000    -3.643000000
H     3.837000000     7.403000000    -4.457000000
O    -0.626000000     2.522000000     3.126000000
H    -1.214000000     3.140000000     2.693000000
H    -0.464000000     1.845000000     2.469000000
O     5.571000000     8.275000000    -1.647000000
H     6.090000000     8.945000000    -2.093000000
H     5.133000000     7.801000000    -2.354000000
O    -4.084000000     5.011000000     3.985000000
H    -4.896000000     5.078000000     3.482000000
H    -3.420000000     4.772000000     3.338000000
O     1.960000000     9.893000000     1.924000000
H     2.148000000    10.823000000     1.799000000
H     1.887000000     9.542000000     1.037000000
O     1.895000000     6.917000000    -1.829000000
H     1.360000000     6.136000000    -1.690000000
H     2.616000000     6.618000000    -2.383000000
O     7.083000000     5.053000000    -1.084000000
H     7.112000000     4.096000000    -1.112000000
H     6.836000000     5.259000000    -0.183000000
O    -0.662000000     8.436000000     2.669000000
H     0.150000000     8.873000000     2.414000000
H    -0.666000000     7.624000000     2.163000000
O     3.174000000     6.518000000     3.610000000
H     2.468000000     6.084000000     3.132000000
H     3.696000000     6.946000000     2.932000000
O    -1.219000000     5.758000000    -3.035000000
H    -1.452000000     6.300000000    -2.281000000
H    -0.469000000     5.243000000    -2.736000000
