215
-1473.14911
C     2.206000000     1.469000000     3.666000000
H     3.060000000     1.187000000     3.055000000
C     1.394000000     0.470000000     4.259000000
C     0.363000000     0.821000000     5.097000000
H    -0.251000000     0.027000000     5.515000000
C     1.560000000    -0.948000000     3.708000000
O     3.022000000    -1.282000000     3.601000000
H     1.100000000    -0.901000000     2.710000000
O     0.879000000    -1.905000000     4.556000000
C     0.092000000    -2.804000000     3.931000000
C    -1.241000000    -2.497000000     3.828000000
H    -1.627000000    -1.611000000     4.324000000
C    -2.078000000    -3.159000000     2.941000000
O    -3.366000000    -2.823000000     2.875000000
C    -1.577000000    -4.307000000     2.282000000
C    -2.390000000    -5.024000000     1.219000000
H    -1.922000000    -5.999000000     1.066000000
C    -2.427000000    -4.291000000    -0.022000000
C    -1.571000000    -4.648000000    -1.078000000
H    -0.866000000    -5.469000000    -0.979000000
H    -3.398000000    -5.077000000     1.635000000
C    -0.262000000    -4.630000000     2.380000000
H     0.178000000    -5.459000000     1.832000000
C     0.646000000    -3.854000000     3.121000000
C     2.112000000    -4.003000000     3.160000000
H     2.383000000    -5.053000000     3.031000000
H     2.420000000    -3.796000000     4.187000000
C     2.898000000    -3.201000000     2.118000000
C     3.150000000    -3.785000000     0.855000000
H     2.816000000    -4.805000000     0.682000000
C     3.349000000    -1.899000000     2.444000000
C     4.057000000    -1.146000000     1.519000000
H     4.342000000    -0.128000000     1.771000000
C     4.204000000    -1.640000000     0.230000000
O     4.773000000    -0.797000000    -0.748000000
C     3.973000000    -0.243000000    -1.818000000
C     4.242000000     1.237000000    -2.000000000
C     3.884000000     1.862000000    -3.196000000
H     3.482000000     1.329000000    -4.054000000
C     4.702000000     2.022000000    -0.968000000
H     5.033000000     1.531000000    -0.057000000
O     4.085000000    -1.042000000    -3.073000000
H     2.922000000    -0.194000000    -1.497000000
C     3.827000000    -3.010000000    -0.073000000
C     4.054000000    -3.562000000    -1.453000000
H     4.173000000    -4.647000000    -1.441000000
H     5.016000000    -3.111000000    -1.706000000
C     2.895000000    -3.107000000    -2.363000000
C     1.760000000    -3.934000000    -2.497000000
H     1.741000000    -4.917000000    -2.032000000
C     3.044000000    -1.944000000    -3.173000000
C     1.993000000    -1.475000000    -3.958000000
H     2.054000000    -0.509000000    -4.453000000
C     0.837000000    -2.218000000    -3.982000000
O    -0.179000000    -1.661000000    -4.636000000
C    -1.039000000    -0.993000000    -3.747000000
C    -1.440000000     0.352000000    -4.239000000
C    -0.860000000     0.969000000    -5.356000000
H    -0.062000000     0.560000000    -5.971000000
C    -2.393000000     1.073000000    -3.468000000
H    -2.986000000     0.623000000    -2.676000000
O    -2.190000000    -1.846000000    -3.476000000
H    -0.472000000    -0.811000000    -2.823000000
C     0.709000000    -3.527000000    -3.344000000
C    -0.572000000    -4.352000000    -3.403000000
H    -0.264000000    -5.394000000    -3.294000000
H    -1.071000000    -4.329000000    -4.374000000
C    -1.457000000    -3.903000000    -2.230000000
C    -2.295000000    -2.730000000    -2.375000000
C    -3.196000000    -2.457000000    -1.374000000
H    -3.963000000    -1.718000000    -1.591000000
C    -3.308000000    -3.256000000    -0.238000000
O    -4.209000000    -2.775000000     0.697000000
C    -3.628000000    -1.949000000     1.683000000
H    -2.645000000    -1.631000000     1.306000000
C    -4.526000000    -0.704000000     1.992000000
C    -4.629000000    -0.262000000     3.332000000
H    -4.165000000    -0.811000000     4.147000000
C    -5.247000000    -0.030000000     0.952000000
H    -5.263000000    -0.469000000    -0.042000000
C    -5.979000000     1.105000000     1.319000000
O    -6.755000000     1.706000000     0.356000000
C    -6.011000000     1.565000000     2.620000000
H    -6.648000000     2.392000000     2.922000000
C    -5.299000000     0.900000000     3.608000000
O    -5.398000000     1.388000000     4.912000000
C    -4.268000000     1.229000000     5.737000000
C    -2.990000000     1.848000000     5.563000000
H    -2.696000000     2.293000000     4.616000000
C    -4.523000000     0.695000000     6.984000000
H    -5.481000000     0.267000000     7.268000000
C    -3.513000000     0.624000000     7.967000000
H    -3.791000000     0.180000000     8.920000000
C    -2.312000000     1.240000000     7.799000000
H    -1.705000000     1.388000000     8.688000000
C    -1.993000000     1.766000000     6.549000000
O    -0.788000000     2.522000000     6.459000000
C     0.081000000     2.143000000     5.472000000
C     1.034000000     3.086000000     5.059000000
H     1.112000000     4.116000000     5.397000000
C     2.112000000     2.743000000     4.179000000
O     3.023000000     3.668000000     3.822000000
C     4.209000000     3.595000000     3.123000000
C     4.220000000     4.063000000     1.834000000
H     3.314000000     4.477000000     1.399000000
C     5.277000000     2.863000000     3.639000000
H     5.268000000     2.379000000     4.613000000
C     6.417000000     2.683000000     2.908000000
H     7.337000000     2.241000000     3.282000000
C     6.483000000     3.209000000     1.649000000
H     7.318000000     2.958000000     1.000000000
C     5.425000000     3.924000000     1.166000000
O     5.380000000     4.221000000    -0.161000000
C     4.928000000     3.380000000    -1.154000000
C     4.638000000     4.035000000    -2.323000000
H     4.776000000     5.111000000    -2.380000000
C     4.130000000     3.252000000    -3.358000000
O     3.905000000     3.864000000    -4.559000000
C     3.170000000     3.463000000    -5.697000000
C     1.796000000     3.290000000    -5.620000000
H     1.377000000     3.591000000    -4.663000000
C     3.730000000     3.095000000    -6.888000000
H     4.794000000     3.231000000    -7.063000000
C     2.917000000     2.544000000    -7.942000000
H     3.332000000     1.980000000    -8.773000000
C     1.576000000     2.522000000    -7.868000000
H     0.965000000     2.069000000    -8.645000000
C     0.961000000     2.917000000    -6.668000000
O    -0.390000000     2.996000000    -6.526000000
C    -1.148000000     2.307000000    -5.617000000
C    -2.050000000     2.987000000    -4.814000000
H    -2.198000000     4.028000000    -5.090000000
C    -2.719000000     2.381000000    -3.747000000
O    -3.640000000     3.114000000    -3.031000000
C    -4.915000000     2.621000000    -2.680000000
C    -5.838000000     2.206000000    -3.609000000
H    -5.567000000     2.170000000    -4.662000000
C    -7.088000000     1.687000000    -3.281000000
H    -7.775000000     1.218000000    -3.979000000
C    -7.423000000     1.471000000    -1.970000000
H    -8.281000000     0.890000000    -1.639000000
C    -6.470000000     1.839000000    -0.976000000
C    -5.227000000     2.438000000    -1.334000000
H    -4.569000000     2.711000000    -0.512000000
C    -1.444000000     1.758000000     0.050000000
H    -2.269000000     2.459000000     0.154000000
C    -1.682000000     0.392000000    -0.110000000
H    -2.705000000     0.027000000    -0.165000000
C    -0.683000000    -0.565000000    -0.173000000
H    -0.916000000    -1.672000000    -0.305000000
C     0.637000000    -0.127000000    -0.056000000
H     1.458000000    -0.837000000    -0.107000000
C     0.891000000     1.214000000     0.004000000
H     1.901000000     1.613000000    -0.030000000
C    -0.140000000     2.226000000     0.108000000
C     0.079000000     3.717000000     0.161000000
O     1.207000000     4.118000000     0.246000000
O    -0.830000000     4.487000000     0.255000000
O     1.073000000    10.200000000    -0.762000000
H     0.960000000     9.684000000     0.037000000
H     0.815000000    11.087000000    -0.513000000
O     3.935000000     7.540000000     2.291000000
H     4.841000000     7.480000000     1.987000000
H     3.530000000     8.186000000     1.711000000
O     2.891000000     6.796000000    -4.420000000
H     2.486000000     6.626000000    -5.270000000
H     2.217000000     6.560000000    -3.782000000
O    -3.456000000     5.451000000     5.502000000
H    -2.765000000     5.296000000     4.858000000
H    -4.270000000     5.354000000     5.008000000
O    -0.732000000     7.009000000    -0.381000000
H    -0.818000000     6.100000000    -0.092000000
H    -0.412000000     7.476000000     0.391000000
O     0.877000000     6.089000000     2.291000000
H     0.102000000     5.686000000     2.681000000
H     1.078000000     5.538000000     1.534000000
O    -3.022000000     4.202000000     1.643000000
H    -2.209000000     4.203000000     1.139000000
H    -3.526000000     4.935000000     1.288000000
O     0.751000000     8.848000000     1.727000000
H     1.181000000     9.457000000     2.328000000
H     1.013000000     7.981000000     2.036000000
O     3.199000000     8.614000000    -0.627000000
H     2.749000000     7.786000000    -0.797000000
H     2.504000000     9.272000000    -0.640000000
O    -1.393000000     4.559000000     3.655000000
H    -2.135000000     4.333000000     3.095000000
H    -0.792000000     3.819000000     3.566000000
O    -2.979000000     5.977000000    -3.156000000
H    -2.978000000     6.672000000    -2.497000000
H    -3.357000000     5.221000000    -2.706000000
O    -2.987000000     8.050000000    -1.069000000
H    -2.216000000     7.592000000    -0.734000000
H    -2.781000000     8.978000000    -0.958000000
O    -5.122000000     4.329000000     3.468000000
H    -5.738000000     4.687000000     2.829000000
H    -4.363000000     4.064000000     2.947000000
O    -0.311000000     8.674000000    -2.654000000
H    -0.088000000     7.752000000    -2.527000000
H     0.138000000     9.129000000    -1.942000000
O     1.971000000     6.279000000    -1.137000000
H     1.906000000     5.539000000    -0.533000000
H     1.432000000     6.025000000    -1.886000000
O    -1.967000000     9.118000000     1.918000000
H    -2.146000000     9.112000000     0.978000000
H    -1.030000000     8.936000000     1.984000000
O     2.007000000     6.662000000     4.623000000
H     1.738000000     6.742000000     3.708000000
H     2.961000000     6.594000000     4.588000000
O    -4.293000000     6.384000000     0.926000000
H    -4.592000000     7.014000000     1.582000000
H    -4.185000000     6.903000000     0.128000000
O     0.059000000     5.766000000    -3.334000000
H    -0.637000000     5.817000000    -3.990000000
H    -0.384000000     5.471000000    -2.538000000
