215
-1460.35456
C     1.310000000     0.197000000     4.663000000
H     2.223000000    -0.034000000     4.121000000
C     0.184000000    -0.650000000     4.565000000
C    -0.991000000    -0.345000000     5.268000000
H    -1.832000000    -1.029000000     5.348000000
C     0.264000000    -1.930000000     3.765000000
O     1.533000000    -2.618000000     3.973000000
H     0.049000000    -1.596000000     2.740000000
O    -0.759000000    -2.802000000     4.085000000
C    -1.540000000    -3.360000000     3.099000000
C    -2.732000000    -2.744000000     2.765000000
H    -3.257000000    -2.043000000     3.410000000
C    -3.277000000    -3.089000000     1.583000000
O    -4.169000000    -2.101000000     1.209000000
C    -2.732000000    -4.064000000     0.747000000
C    -3.400000000    -4.390000000    -0.549000000
H    -3.238000000    -5.430000000    -0.841000000
C    -2.999000000    -3.449000000    -1.662000000
C    -2.018000000    -3.919000000    -2.510000000
H    -1.499000000    -4.858000000    -2.334000000
H    -4.491000000    -4.423000000    -0.502000000
C    -1.569000000    -4.703000000     1.095000000
H    -1.073000000    -5.473000000     0.510000000
C    -0.965000000    -4.322000000     2.263000000
C     0.391000000    -4.922000000     2.678000000
H     0.450000000    -5.955000000     2.331000000
H     0.441000000    -4.975000000     3.767000000
C     1.542000000    -4.215000000     2.157000000
C     2.018000000    -4.490000000     0.835000000
H     1.572000000    -5.200000000     0.143000000
C     2.160000000    -3.092000000     2.781000000
C     3.196000000    -2.378000000     2.183000000
H     3.567000000    -1.495000000     2.697000000
C     3.614000000    -2.718000000     0.926000000
O     4.640000000    -1.924000000     0.421000000
C     4.310000000    -1.016000000    -0.599000000
C     5.030000000     0.406000000    -0.491000000
C     5.162000000     1.406000000    -1.528000000
H     4.748000000     1.163000000    -2.503000000
C     5.412000000     0.761000000     0.825000000
H     5.234000000     0.062000000     1.639000000
O     4.480000000    -1.560000000    -1.869000000
H     3.242000000    -0.753000000    -0.559000000
C     3.153000000    -3.858000000     0.274000000
C     3.563000000    -4.232000000    -1.137000000
H     3.477000000    -5.301000000    -1.342000000
H     4.653000000    -4.172000000    -1.169000000
C     2.855000000    -3.360000000    -2.160000000
C     1.728000000    -3.828000000    -2.743000000
H     1.448000000    -4.844000000    -2.476000000
C     3.389000000    -2.102000000    -2.475000000
C     2.677000000    -1.360000000    -3.476000000
H     2.969000000    -0.342000000    -3.720000000
C     1.592000000    -1.891000000    -4.150000000
O     0.874000000    -0.982000000    -4.852000000
C    -0.342000000    -0.343000000    -4.360000000
C    -0.462000000     1.124000000    -4.831000000
C     0.675000000     1.859000000    -4.853000000
H     1.593000000     1.381000000    -4.520000000
C    -1.673000000     1.685000000    -5.195000000
H    -2.578000000     1.085000000    -5.149000000
O    -1.410000000    -1.150000000    -4.812000000
H    -0.354000000    -0.417000000    -3.263000000
C     1.022000000    -3.056000000    -3.725000000
C    -0.305000000    -3.678000000    -4.285000000
H    -0.239000000    -4.767000000    -4.232000000
H    -0.459000000    -3.484000000    -5.349000000
C    -1.464000000    -3.149000000    -3.512000000
C    -2.012000000    -1.873000000    -3.790000000
C    -3.089000000    -1.439000000    -3.021000000
H    -3.544000000    -0.463000000    -3.172000000
C    -3.539000000    -2.183000000    -1.911000000
O    -4.374000000    -1.539000000    -1.021000000
C    -3.784000000    -1.198000000     0.221000000
H    -2.685000000    -1.158000000     0.250000000
C    -4.323000000     0.206000000     0.533000000
C    -4.680000000     0.617000000     1.844000000
H    -4.618000000    -0.129000000     2.633000000
C    -4.334000000     1.102000000    -0.458000000
H    -4.049000000     0.816000000    -1.468000000
C    -4.531000000     2.497000000    -0.256000000
O    -4.354000000     3.480000000    -1.206000000
C    -4.780000000     2.873000000     1.037000000
H    -4.871000000     3.942000000     1.211000000
C    -4.895000000     2.000000000     2.115000000
O    -5.298000000     2.412000000     3.383000000
C    -5.055000000     1.752000000     4.592000000
C    -3.718000000     1.660000000     5.032000000
H    -2.973000000     1.977000000     4.306000000
C    -6.043000000     1.593000000     5.543000000
H    -7.056000000     1.732000000     5.172000000
C    -5.769000000     1.135000000     6.823000000
H    -6.584000000     0.923000000     7.511000000
C    -4.420000000     0.972000000     7.245000000
H    -4.243000000     0.677000000     8.276000000
C    -3.437000000     1.208000000     6.314000000
O    -2.115000000     1.208000000     6.741000000
C    -1.019000000     0.881000000     5.965000000
C    -0.016000000     1.802000000     5.849000000
H    -0.214000000     2.828000000     6.150000000
C     1.194000000     1.448000000     5.216000000
O     2.148000000     2.469000000     4.974000000
C     3.550000000     2.311000000     4.960000000
C     4.181000000     2.440000000     3.776000000
H     3.608000000     2.575000000     2.862000000
C     4.260000000     1.808000000     6.113000000
H     3.819000000     1.778000000     7.106000000
C     5.630000000     1.656000000     6.004000000
H     6.122000000     1.461000000     6.954000000
C     6.285000000     1.770000000     4.803000000
H     7.329000000     1.469000000     4.812000000
C     5.546000000     2.146000000     3.707000000
O     6.245000000     2.455000000     2.481000000
C     5.925000000     2.080000000     1.137000000
C     5.999000000     3.029000000     0.141000000
H     6.289000000     4.053000000     0.362000000
C     5.609000000     2.692000000    -1.181000000
O     5.661000000     3.622000000    -2.221000000
C     4.912000000     3.492000000    -3.421000000
C     3.556000000     3.912000000    -3.515000000
H     3.029000000     4.272000000    -2.635000000
C     5.589000000     3.006000000    -4.568000000
H     6.651000000     2.783000000    -4.494000000
C     4.889000000     2.917000000    -5.787000000
H     5.465000000     2.605000000    -6.655000000
C     3.539000000     3.309000000    -5.820000000
H     3.046000000     3.416000000    -6.783000000
C     2.876000000     3.717000000    -4.674000000
O     1.596000000     4.107000000    -4.843000000
C     0.630000000     3.238000000    -5.082000000
C    -0.625000000     3.786000000    -5.517000000
H    -0.709000000     4.860000000    -5.666000000
C    -1.796000000     3.036000000    -5.474000000
O    -3.091000000     3.545000000    -5.733000000
C    -4.111000000     3.315000000    -4.808000000
C    -5.393000000     2.968000000    -5.162000000
H    -5.654000000     2.957000000    -6.217000000
C    -6.417000000     2.874000000    -4.190000000
H    -7.479000000     2.769000000    -4.398000000
C    -6.023000000     3.022000000    -2.833000000
H    -6.763000000     2.974000000    -2.039000000
C    -4.725000000     3.388000000    -2.497000000
C    -3.789000000     3.559000000    -3.491000000
H    -2.758000000     3.834000000    -3.288000000
C    -0.514000000     1.873000000    -0.831000000
H    -1.126000000     2.596000000    -1.366000000
C    -0.798000000     0.527000000    -0.731000000
H    -1.664000000     0.148000000    -1.268000000
C     0.110000000    -0.315000000    -0.134000000
H    -0.066000000    -1.394000000    -0.217000000
C     1.217000000     0.169000000     0.447000000
H     1.881000000    -0.553000000     0.915000000
C     1.572000000     1.513000000     0.349000000
H     2.557000000     1.847000000     0.663000000
C     0.690000000     2.366000000    -0.293000000
C     1.020000000     3.841000000    -0.536000000
O     2.157000000     4.213000000    -0.353000000
O     0.182000000     4.690000000    -0.680000000
O     4.961000000     6.717000000     4.369000000
H     5.631000000     6.124000000     4.710000000
H     4.578000000     6.245000000     3.630000000
O     1.104000000     6.813000000     0.967000000
H     1.341000000     7.573000000     0.436000000
H     0.784000000     6.169000000     0.335000000
O     2.235000000     6.902000000    -4.763000000
H     1.815000000     6.045000000    -4.693000000
H     1.874000000     7.281000000    -5.565000000
O    -0.007000000     5.111000000     5.297000000
H    -0.799000000     4.982000000     4.775000000
H     0.622000000     4.485000000     4.937000000
O     1.881000000     8.981000000    -0.266000000
H     2.672000000     9.214000000     0.220000000
H     2.187000000     8.820000000    -1.158000000
O     0.688000000     4.521000000     2.663000000
H     0.048000000     3.829000000     2.498000000
H     0.625000000     5.092000000     1.897000000
O    -2.761000000     5.149000000     3.674000000
H    -2.516000000     4.638000000     2.902000000
H    -2.650000000     6.060000000     3.403000000
O    -2.144000000     4.653000000     0.871000000
H    -2.795000000     4.213000000     0.325000000
H    -1.416000000     4.835000000     0.277000000
O     4.769000000     9.409000000    -1.910000000
H     4.020000000     9.443000000    -2.504000000
H     4.437000000     8.965000000    -1.130000000
O     5.069000000     6.725000000    -4.504000000
H     4.632000000     7.159000000    -5.237000000
H     4.354000000     6.368000000    -3.977000000
O    -1.410000000     1.955000000     2.545000000
H    -1.094000000     1.128000000     2.909000000
H    -1.302000000     1.856000000     1.599000000
O    -2.627000000     7.186000000    -2.432000000
H    -1.725000000     6.869000000    -2.473000000
H    -2.625000000     7.824000000    -1.718000000
O    -0.433000000     9.960000000    -2.091000000
H     0.282000000     9.480000000    -1.673000000
H    -1.228000000     9.552000000    -1.749000000
O     2.243000000     9.023000000    -3.000000000
H     1.642000000     9.389000000    -3.649000000
H     2.651000000     8.279000000    -3.445000000
O     2.966000000     6.533000000    -1.294000000
H     2.570000000     5.675000000    -1.139000000
H     3.331000000     6.785000000    -0.446000000
O     4.402000000     8.028000000     0.990000000
H     4.045000000     7.231000000     1.383000000
H     5.346000000     7.963000000     1.131000000
O     1.566000000     7.311000000     3.657000000
H     1.461000000     7.294000000     2.706000000
H     1.147000000     6.504000000     3.958000000
O     3.551000000     5.555000000     2.031000000
H     2.732000000     5.362000000     2.488000000
H     3.527000000     5.000000000     1.252000000
O     0.247000000     6.773000000    -2.252000000
H     1.175000000     7.005000000    -2.224000000
H     0.181000000     5.984000000    -1.713000000
