215
-1476.48220
C     1.860000000     1.342000000     4.706000000
H     2.813000000     1.116000000     4.234000000
C     0.755000000     0.488000000     4.673000000
C    -0.485000000     0.887000000     5.264000000
H    -1.338000000     0.215000000     5.296000000
C     0.992000000    -0.999000000     4.149000000
O     2.331000000    -1.504000000     4.125000000
H     0.602000000    -0.963000000     3.121000000
O     0.199000000    -2.028000000     4.862000000
C    -0.472000000    -2.861000000     3.981000000
C    -1.721000000    -2.431000000     3.602000000
H    -2.079000000    -1.526000000     4.086000000
C    -2.431000000    -3.137000000     2.611000000
O    -3.591000000    -2.547000000     2.186000000
C    -1.831000000    -4.185000000     1.887000000
C    -2.585000000    -4.936000000     0.742000000
H    -2.219000000    -5.965000000     0.715000000
C    -2.387000000    -4.233000000    -0.629000000
C    -1.342000000    -4.681000000    -1.395000000
H    -0.603000000    -5.385000000    -1.021000000
H    -3.643000000    -4.976000000     1.009000000
C    -0.581000000    -4.674000000     2.388000000
H    -0.046000000    -5.504000000     1.935000000
C     0.118000000    -4.030000000     3.383000000
C     1.638000000    -4.340000000     3.597000000
H     1.813000000    -5.415000000     3.522000000
H     1.900000000    -4.159000000     4.642000000
C     2.414000000    -3.492000000     2.668000000
C     2.870000000    -3.926000000     1.438000000
H     2.737000000    -4.948000000     1.093000000
C     2.788000000    -2.126000000     3.039000000
C     3.566000000    -1.305000000     2.202000000
H     3.743000000    -0.267000000     2.473000000
C     4.064000000    -1.841000000     1.019000000
O     4.746000000    -0.898000000     0.210000000
C     3.958000000    -0.412000000    -0.956000000
C     4.156000000     1.061000000    -1.156000000
C     3.853000000     1.646000000    -2.395000000
H     3.592000000     1.053000000    -3.268000000
C     4.498000000     1.865000000    -0.074000000
H     4.655000000     1.312000000     0.849000000
O     4.382000000    -1.166000000    -2.113000000
H     2.887000000    -0.613000000    -0.804000000
C     3.692000000    -3.096000000     0.567000000
C     4.171000000    -3.679000000    -0.742000000
H     4.235000000    -4.769000000    -0.720000000
H     5.204000000    -3.346000000    -0.865000000
C     3.264000000    -3.296000000    -1.897000000
C     2.204000000    -4.162000000    -2.260000000
H     1.973000000    -5.069000000    -1.707000000
C     3.415000000    -2.043000000    -2.569000000
C     2.609000000    -1.742000000    -3.656000000
H     2.821000000    -0.777000000    -4.110000000
C     1.504000000    -2.484000000    -3.925000000
O     0.525000000    -1.942000000    -4.736000000
C    -0.638000000    -1.317000000    -4.203000000
C    -0.962000000     0.036000000    -4.926000000
C    -0.095000000     0.579000000    -5.866000000
H     0.700000000    -0.036000000    -6.279000000
C    -2.043000000     0.859000000    -4.476000000
H    -2.691000000     0.504000000    -3.679000000
O    -1.705000000    -2.347000000    -4.224000000
H    -0.396000000    -1.077000000    -3.157000000
C     1.290000000    -3.757000000    -3.265000000
C     0.031000000    -4.564000000    -3.535000000
H     0.350000000    -5.591000000    -3.347000000
H    -0.317000000    -4.502000000    -4.568000000
C    -1.136000000    -4.055000000    -2.664000000
C    -1.959000000    -3.021000000    -3.062000000
C    -3.029000000    -2.574000000    -2.254000000
H    -3.590000000    -1.678000000    -2.509000000
C    -3.226000000    -3.141000000    -1.012000000
O    -4.112000000    -2.536000000    -0.131000000
C    -3.632000000    -1.752000000     0.949000000
H    -2.654000000    -1.342000000     0.658000000
C    -4.535000000    -0.513000000     1.157000000
C    -4.799000000    -0.122000000     2.421000000
H    -4.481000000    -0.739000000     3.258000000
C    -4.898000000     0.324000000     0.049000000
H    -4.681000000     0.089000000    -0.990000000
C    -5.666000000     1.489000000     0.265000000
O    -6.041000000     2.396000000    -0.730000000
C    -5.900000000     1.878000000     1.597000000
H    -6.458000000     2.800000000     1.747000000
C    -5.490000000     1.071000000     2.673000000
O    -5.791000000     1.415000000     3.934000000
C    -4.991000000     1.392000000     5.052000000
C    -3.647000000     1.946000000     5.021000000
H    -3.182000000     2.171000000     4.064000000
C    -5.539000000     0.881000000     6.259000000
H    -6.541000000     0.471000000     6.356000000
C    -4.767000000     0.946000000     7.427000000
H    -5.145000000     0.543000000     8.363000000
C    -3.465000000     1.519000000     7.390000000
H    -2.886000000     1.562000000     8.309000000
C    -2.951000000     2.044000000     6.211000000
O    -1.750000000     2.635000000     6.292000000
C    -0.634000000     2.176000000     5.732000000
C     0.420000000     3.083000000     5.649000000
H     0.244000000     4.107000000     5.970000000
C     1.610000000     2.632000000     5.195000000
O     2.646000000     3.549000000     5.162000000
C     3.713000000     3.609000000     4.339000000
C     3.664000000     3.686000000     2.953000000
H     2.682000000     3.821000000     2.506000000
C     4.967000000     3.616000000     4.945000000
H     4.938000000     3.756000000     6.023000000
C     6.171000000     3.646000000     4.217000000
H     7.110000000     3.746000000     4.755000000
C     6.094000000     3.747000000     2.842000000
H     7.042000000     3.931000000     2.343000000
C     4.873000000     3.813000000     2.223000000
O     4.890000000     4.130000000     0.891000000
C     4.479000000     3.273000000    -0.131000000
C     4.231000000     3.841000000    -1.376000000
H     4.160000000     4.913000000    -1.542000000
C     3.994000000     3.020000000    -2.463000000
O     3.863000000     3.730000000    -3.627000000
C     3.658000000     3.338000000    -4.966000000
C     2.396000000     2.852000000    -5.345000000
H     1.805000000     2.442000000    -4.530000000
C     4.592000000     3.629000000    -5.965000000
H     5.568000000     4.059000000    -5.757000000
C     4.202000000     3.558000000    -7.317000000
H     4.902000000     3.746000000    -8.127000000
C     2.905000000     3.224000000    -7.694000000
H     2.517000000     3.152000000    -8.707000000
C     1.996000000     2.846000000    -6.720000000
O     0.709000000     2.489000000    -7.184000000
C    -0.195000000     1.890000000    -6.320000000
C    -1.308000000     2.584000000    -5.991000000
H    -1.481000000     3.535000000    -6.489000000
C    -2.277000000     2.080000000    -5.091000000
O    -3.230000000     2.933000000    -4.621000000
C    -4.356000000     2.420000000    -3.997000000
C    -5.246000000     1.641000000    -4.775000000
H    -5.034000000     1.382000000    -5.809000000
C    -6.368000000     1.106000000    -4.175000000
H    -7.056000000     0.657000000    -4.886000000
C    -6.667000000     1.415000000    -2.864000000
H    -7.575000000     1.120000000    -2.345000000
C    -5.817000000     2.200000000    -2.070000000
C    -4.643000000     2.682000000    -2.633000000
H    -3.869000000     3.200000000    -2.071000000
C    -1.314000000     1.401000000    -0.800000000
H    -2.089000000     1.791000000    -1.454000000
C    -1.038000000     0.079000000    -0.792000000
H    -1.710000000    -0.609000000    -1.301000000
C     0.127000000    -0.401000000    -0.200000000
H     0.368000000    -1.494000000    -0.207000000
C     0.967000000     0.461000000     0.552000000
H     1.784000000     0.041000000     1.134000000
C     0.602000000     1.835000000     0.626000000
H     1.196000000     2.416000000     1.327000000
C    -0.518000000     2.343000000    -0.082000000
C    -0.866000000     3.782000000    -0.087000000
O    -0.099000000     4.526000000     0.476000000
O    -1.999000000     4.098000000    -0.447000000
O     0.615000000     9.023000000     0.371000000
H     0.757000000     8.979000000     1.317000000
H     0.945000000     9.886000000     0.120000000
O     3.558000000     7.350000000     2.889000000
H     2.922000000     6.671000000     3.115000000
H     3.050000000     8.160000000     2.876000000
O     3.956000000     7.255000000     0.118000000
H     3.265000000     6.721000000    -0.275000000
H     3.729000000     7.295000000     1.047000000
O    -3.174000000     5.492000000    -5.800000000
H    -3.136000000     6.411000000    -6.063000000
H    -2.714000000     5.464000000    -4.961000000
O    -3.219000000     5.427000000     5.030000000
H    -2.634000000     5.223000000     4.301000000
H    -4.087000000     5.167000000     4.720000000
O    -1.181000000     6.886000000    -0.053000000
H    -0.881000000     5.979000000    -0.117000000
H    -0.386000000     7.390000000     0.120000000
O    -1.409000000     7.765000000     3.320000000
H    -1.691000000     6.947000000     2.910000000
H    -2.135000000     8.370000000     3.172000000
O     1.199000000     5.729000000     2.651000000
H     0.345000000     5.720000000     3.084000000
H     1.059000000     5.247000000     1.836000000
O    -4.245000000     4.350000000     1.068000000
H    -3.417000000     4.293000000     0.591000000
H    -4.834000000     4.811000000     0.471000000
O    -5.516000000     5.588000000    -4.026000000
H    -4.834000000     4.980000000    -4.313000000
H    -5.237000000     6.438000000    -4.365000000
O     2.551000000     9.316000000    -1.842000000
H     1.966000000     8.855000000    -1.240000000
H     2.543000000     8.785000000    -2.638000000
O    -1.952000000     4.944000000     2.744000000
H    -1.483000000     4.764000000     1.929000000
H    -2.870000000     4.771000000     2.535000000
O    -2.371000000     5.262000000    -2.972000000
H    -2.590000000     6.133000000    -2.641000000
H    -2.518000000     4.679000000    -2.227000000
O    -3.667000000     7.398000000    -1.425000000
H    -2.988000000     7.207000000    -0.778000000
H    -4.475000000     7.455000000    -0.914000000
O    -5.450000000     4.914000000     3.603000000
H    -6.175000000     5.464000000     3.306000000
H    -5.143000000     4.474000000     2.810000000
O    -0.853000000     8.691000000    -2.158000000
H    -0.978000000     7.927000000    -1.595000000
H    -0.300000000     9.280000000    -1.642000000
O     1.689000000     5.817000000    -1.024000000
H     1.079000000     5.205000000    -0.612000000
H     1.808000000     5.475000000    -1.910000000
O     2.003000000     6.643000000     5.388000000
H     2.635000000     6.075000000     5.829000000
H     1.861000000     6.228000000     4.537000000
O     0.852000000     4.516000000    -3.067000000
H     0.857000000     5.063000000    -3.853000000
H    -0.041000000     4.176000000    -3.019000000
