215
-1458.25810
C     2.413000000     0.241000000     4.842000000
H     3.355000000    -0.204000000     4.534000000
C     1.213000000    -0.429000000     4.622000000
C     0.019000000     0.190000000     5.107000000
H    -0.996000000    -0.152000000     4.926000000
C     1.298000000    -1.660000000     3.688000000
O     2.609000000    -2.272000000     3.690000000
H     1.038000000    -1.286000000     2.687000000
O     0.324000000    -2.660000000     4.106000000
C    -0.524000000    -3.188000000     3.129000000
C    -1.817000000    -2.715000000     2.990000000
H    -2.139000000    -1.873000000     3.599000000
C    -2.558000000    -3.245000000     1.994000000
O    -3.727000000    -2.548000000     1.722000000
C    -2.121000000    -4.299000000     1.198000000
C    -2.921000000    -4.836000000     0.010000000
H    -2.623000000    -5.872000000    -0.162000000
C    -2.850000000    -3.975000000    -1.255000000
C    -1.874000000    -4.329000000    -2.211000000
H    -1.387000000    -5.299000000    -2.150000000
H    -3.971000000    -4.862000000     0.308000000
C    -0.800000000    -4.798000000     1.387000000
H    -0.491000000    -5.604000000     0.726000000
C    -0.041000000    -4.231000000     2.326000000
C     1.348000000    -4.700000000     2.597000000
H     1.400000000    -5.753000000     2.310000000
H     1.535000000    -4.756000000     3.671000000
C     2.374000000    -3.840000000     1.836000000
C     2.702000000    -4.211000000     0.579000000
H     2.036000000    -4.935000000     0.117000000
C     2.974000000    -2.673000000     2.406000000
C     3.951000000    -2.004000000     1.675000000
H     4.401000000    -1.133000000     2.144000000
C     4.332000000    -2.486000000     0.437000000
O     5.168000000    -1.560000000    -0.246000000
C     4.410000000    -0.686000000    -1.110000000
C     4.671000000     0.820000000    -0.869000000
C     4.814000000     1.701000000    -1.961000000
H     4.920000000     1.226000000    -2.934000000
C     4.818000000     1.329000000     0.401000000
H     4.635000000     0.799000000     1.332000000
O     4.310000000    -1.155000000    -2.446000000
H     3.355000000    -0.719000000    -0.800000000
C     3.646000000    -3.491000000    -0.163000000
C     3.831000000    -3.809000000    -1.632000000
H     3.656000000    -4.880000000    -1.750000000
H     4.890000000    -3.759000000    -1.893000000
C     2.895000000    -3.044000000    -2.514000000
C     1.723000000    -3.700000000    -2.962000000
H     1.463000000    -4.720000000    -2.693000000
C     3.177000000    -1.723000000    -2.862000000
C     2.274000000    -1.006000000    -3.693000000
H     2.514000000    -0.032000000    -4.114000000
C     1.059000000    -1.656000000    -4.040000000
O     0.142000000    -0.908000000    -4.729000000
C    -1.021000000    -0.447000000    -4.075000000
C    -1.256000000     1.027000000    -4.476000000
C    -0.235000000     1.961000000    -4.496000000
H     0.785000000     1.645000000    -4.298000000
C    -2.631000000     1.498000000    -4.627000000
H    -3.510000000     0.867000000    -4.523000000
O    -2.081000000    -1.331000000    -4.299000000
H    -0.847000000    -0.453000000    -2.988000000
C     0.801000000    -3.034000000    -3.732000000
C    -0.394000000    -3.801000000    -4.278000000
H    -0.279000000    -4.887000000    -4.282000000
H    -0.710000000    -3.367000000    -5.228000000
C    -1.538000000    -3.493000000    -3.277000000
C    -2.281000000    -2.271000000    -3.324000000
C    -3.309000000    -1.969000000    -2.466000000
H    -3.863000000    -1.061000000    -2.691000000
C    -3.544000000    -2.795000000    -1.369000000
O    -4.429000000    -2.299000000    -0.443000000
C    -3.736000000    -1.585000000     0.590000000
H    -2.731000000    -1.270000000     0.271000000
C    -4.533000000    -0.330000000     0.916000000
C    -4.531000000     0.149000000     2.236000000
H    -4.134000000    -0.404000000     3.083000000
C    -5.073000000     0.450000000    -0.055000000
H    -5.205000000    -0.051000000    -1.010000000
C    -5.692000000     1.762000000     0.178000000
O    -6.287000000     2.629000000    -0.738000000
C    -5.589000000     2.172000000     1.494000000
H    -5.959000000     3.160000000     1.754000000
C    -4.987000000     1.443000000     2.563000000
O    -4.782000000     2.028000000     3.764000000
C    -4.198000000     1.377000000     4.812000000
C    -2.908000000     1.824000000     5.115000000
H    -2.407000000     2.612000000     4.559000000
C    -4.985000000     0.596000000     5.641000000
H    -6.009000000     0.329000000     5.393000000
C    -4.375000000     0.181000000     6.835000000
H    -5.000000000    -0.374000000     7.530000000
C    -3.028000000     0.527000000     7.054000000
H    -2.668000000     0.127000000     7.998000000
C    -2.340000000     1.401000000     6.296000000
O    -1.074000000     1.766000000     6.608000000
C     0.068000000     1.234000000     6.017000000
C     1.284000000     1.728000000     6.410000000
H     1.338000000     2.579000000     7.084000000
C     2.480000000     1.256000000     5.803000000
O     3.638000000     1.906000000     6.102000000
C     4.575000000     2.194000000     5.153000000
C     4.109000000     2.632000000     3.923000000
H     3.057000000     2.804000000     3.712000000
C     5.934000000     2.053000000     5.402000000
H     6.156000000     1.574000000     6.353000000
C     6.863000000     2.434000000     4.384000000
H     7.944000000     2.367000000     4.474000000
C     6.387000000     2.865000000     3.161000000
H     7.167000000     3.039000000     2.425000000
C     5.040000000     2.949000000     2.929000000
O     4.683000000     3.419000000     1.672000000
C     4.804000000     2.722000000     0.479000000
C     4.983000000     3.561000000    -0.595000000
H     5.166000000     4.624000000    -0.453000000
C     4.938000000     3.038000000    -1.830000000
O     5.122000000     3.857000000    -2.921000000
C     4.188000000     3.892000000    -3.897000000
C     2.798000000     3.959000000    -3.538000000
H     2.427000000     4.011000000    -2.517000000
C     4.527000000     3.905000000    -5.190000000
H     5.578000000     3.899000000    -5.468000000
C     3.629000000     3.927000000    -6.269000000
H     3.967000000     3.801000000    -7.294000000
C     2.262000000     4.139000000    -5.945000000
H     1.495000000     4.162000000    -6.714000000
C     1.840000000     4.134000000    -4.602000000
O     0.462000000     4.327000000    -4.395000000
C    -0.540000000     3.357000000    -4.627000000
C    -1.872000000     3.798000000    -4.684000000
H    -2.067000000     4.865000000    -4.757000000
C    -2.887000000     2.876000000    -4.774000000
O    -4.169000000     3.385000000    -4.916000000
C    -5.258000000     2.928000000    -4.245000000
C    -6.405000000     2.482000000    -4.917000000
H    -6.385000000     2.372000000    -5.998000000
C    -7.511000000     2.042000000    -4.121000000
H    -8.406000000     1.687000000    -4.626000000
C    -7.515000000     2.057000000    -2.744000000
H    -8.383000000     1.815000000    -2.136000000
C    -6.347000000     2.510000000    -2.111000000
C    -5.186000000     2.810000000    -2.825000000
H    -4.303000000     3.140000000    -2.285000000
C    -0.936000000     1.973000000    -0.828000000
H    -1.772000000     2.603000000    -1.122000000
C    -1.103000000     0.576000000    -0.801000000
H    -2.092000000     0.207000000    -1.059000000
C    -0.152000000    -0.290000000    -0.273000000
H    -0.416000000    -1.367000000    -0.364000000
C     1.063000000     0.195000000     0.078000000
H     1.738000000    -0.471000000     0.609000000
C     1.308000000     1.590000000     0.092000000
H     2.238000000     1.948000000     0.525000000
C     0.262000000     2.477000000    -0.296000000
C     0.494000000     3.961000000    -0.167000000
O     1.501000000     4.508000000     0.227000000
O    -0.355000000     4.793000000    -0.455000000
O     2.426000000     9.134000000     2.333000000
H     2.126000000     9.052000000     1.427000000
H     1.622000000     9.208000000     2.846000000
O    -3.548000000     7.634000000     1.494000000
H    -2.837000000     6.994000000     1.525000000
H    -4.301000000     7.140000000     1.171000000
O     1.986000000     7.512000000    -4.076000000
H     1.588000000     6.691000000    -3.784000000
H     1.876000000     7.506000000    -5.027000000
O    -1.853000000     5.019000000     5.866000000
H    -1.882000000     4.404000000     6.599000000
H    -0.977000000     4.908000000     5.496000000
O    -1.162000000     8.512000000    -1.008000000
H    -1.656000000     8.490000000    -0.188000000
H    -0.247000000     8.581000000    -0.735000000
O    -0.807000000     6.573000000     1.444000000
H    -0.638000000     6.022000000     0.680000000
H     0.043000000     6.648000000     1.878000000
O    -0.016000000     3.757000000     3.490000000
H    -0.089000000     2.808000000     3.394000000
H    -0.664000000     4.111000000     2.881000000
O    -2.682000000     3.660000000     1.632000000
H    -2.614000000     4.314000000     0.937000000
H    -3.623000000     3.543000000     1.760000000
O     4.322000000     6.702000000     4.254000000
H     3.452000000     6.399000000     3.996000000
H     4.360000000     7.609000000     3.953000000
O    -3.010000000     5.216000000    -0.552000000
H    -3.275000000     5.436000000    -1.445000000
H    -2.060000000     5.110000000    -0.603000000
O    -1.176000000     1.364000000     2.126000000
H    -0.863000000     1.147000000     1.247000000
H    -1.765000000     2.106000000     1.994000000
O    -4.321000000     4.953000000     4.706000000
H    -3.436000000     4.629000000     4.539000000
H    -4.205000000     5.634000000     5.369000000
O    -5.446000000     5.829000000     0.432000000
H    -5.926000000     6.202000000    -0.307000000
H    -4.641000000     5.484000000     0.046000000
O     1.254000000     8.980000000    -0.373000000
H     1.688000000     8.130000000    -0.448000000
H     1.635000000     9.507000000    -1.075000000
O     2.747000000     6.720000000     0.263000000
H     2.088000000     6.063000000     0.040000000
H     3.427000000     6.230000000     0.726000000
O     5.430000000     6.363000000     1.805000000
H     5.265000000     5.485000000     1.460000000
H     4.964000000     6.384000000     2.641000000
O     4.765000000     8.924000000    -0.438000000
H     5.527000000     8.430000000    -0.740000000
H     4.195000000     8.265000000    -0.040000000
O     2.016000000     5.307000000     2.618000000
H     1.257000000     4.966000000     3.092000000
H     1.917000000     4.964000000     1.730000000
O    -1.216000000     6.840000000    -3.114000000
H    -1.330000000     7.451000000    -2.386000000
H    -0.909000000     6.032000000    -2.703000000
