215
-1464.94462
C     1.194000000     0.368000000     4.978000000
H     2.139000000     0.342000000     4.442000000
C     0.342000000    -0.702000000     4.929000000
C    -0.928000000    -0.596000000     5.636000000
H    -1.658000000    -1.401000000     5.667000000
C     0.650000000    -1.888000000     4.105000000
O     2.062000000    -2.241000000     4.088000000
H     0.467000000    -1.553000000     3.074000000
O    -0.248000000    -2.980000000     4.381000000
C    -0.783000000    -3.610000000     3.299000000
C    -2.089000000    -3.196000000     2.976000000
H    -2.672000000    -2.537000000     3.614000000
C    -2.658000000    -3.678000000     1.791000000
O    -3.861000000    -3.054000000     1.396000000
C    -1.894000000    -4.402000000     0.811000000
C    -2.399000000    -4.979000000    -0.522000000
H    -1.848000000    -5.887000000    -0.775000000
C    -2.195000000    -4.013000000    -1.747000000
C    -1.068000000    -4.203000000    -2.547000000
H    -0.493000000    -5.124000000    -2.599000000
H    -3.434000000    -5.323000000    -0.474000000
C    -0.568000000    -4.740000000     1.098000000
H     0.010000000    -5.354000000     0.412000000
C    -0.046000000    -4.345000000     2.344000000
C     1.395000000    -4.759000000     2.635000000
H     1.685000000    -5.761000000     2.311000000
H     1.582000000    -4.810000000     3.710000000
C     2.388000000    -3.666000000     2.148000000
C     2.907000000    -3.788000000     0.843000000
H     2.860000000    -4.687000000     0.234000000
C     2.536000000    -2.450000000     2.804000000
C     3.250000000    -1.399000000     2.220000000
H     3.633000000    -0.539000000     2.765000000
C     3.878000000    -1.633000000     0.985000000
O     4.581000000    -0.540000000     0.424000000
C     4.046000000     0.158000000    -0.671000000
C     4.427000000     1.676000000    -0.538000000
C     4.775000000     2.523000000    -1.603000000
H     4.652000000     2.034000000    -2.566000000
C     4.601000000     2.183000000     0.726000000
H     4.546000000     1.532000000     1.595000000
O     4.655000000    -0.415000000    -1.914000000
H     2.954000000     0.029000000    -0.675000000
C     3.731000000    -2.824000000     0.262000000
C     4.365000000    -3.113000000    -1.103000000
H     4.394000000    -4.197000000    -1.231000000
H     5.421000000    -2.834000000    -1.107000000
C     3.574000000    -2.503000000    -2.255000000
C     2.559000000    -3.222000000    -2.888000000
H     2.368000000    -4.265000000    -2.649000000
C     3.820000000    -1.196000000    -2.603000000
C     2.989000000    -0.549000000    -3.533000000
H     3.047000000     0.531000000    -3.649000000
C     2.028000000    -1.282000000    -4.231000000
O     1.156000000    -0.624000000    -5.010000000
C    -0.016000000    -0.163000000    -4.257000000
C    -0.488000000     1.210000000    -4.635000000
C     0.530000000     2.086000000    -5.021000000
H     1.507000000     1.729000000    -5.336000000
C    -1.738000000     1.678000000    -4.247000000
H    -2.501000000     0.992000000    -3.887000000
O    -1.135000000    -1.063000000    -4.439000000
H     0.182000000    -0.208000000    -3.176000000
C     1.745000000    -2.600000000    -3.799000000
C     0.487000000    -3.313000000    -4.303000000
H     0.584000000    -4.395000000    -4.407000000
H     0.255000000    -2.993000000    -5.321000000
C    -0.695000000    -3.178000000    -3.369000000
C    -1.472000000    -2.012000000    -3.498000000
C    -2.592000000    -1.860000000    -2.745000000
H    -3.193000000    -0.962000000    -2.867000000
C    -2.961000000    -2.829000000    -1.796000000
O    -3.990000000    -2.641000000    -0.969000000
C    -3.695000000    -2.077000000     0.356000000
H    -2.703000000    -1.606000000     0.433000000
C    -4.671000000    -0.901000000     0.602000000
C    -4.866000000    -0.410000000     1.916000000
H    -4.319000000    -0.873000000     2.733000000
C    -5.410000000    -0.236000000    -0.385000000
H    -5.541000000    -0.577000000    -1.408000000
C    -6.135000000     0.954000000    -0.168000000
O    -6.783000000     1.510000000    -1.259000000
C    -6.225000000     1.342000000     1.127000000
H    -6.947000000     2.123000000     1.351000000
C    -5.640000000     0.724000000     2.205000000
O    -5.850000000     1.144000000     3.556000000
C    -5.373000000     0.512000000     4.628000000
C    -4.145000000     0.938000000     5.189000000
H    -3.683000000     1.800000000     4.715000000
C    -6.055000000    -0.532000000     5.161000000
H    -6.835000000    -0.919000000     4.510000000
C    -5.647000000    -1.181000000     6.302000000
H    -6.125000000    -2.086000000     6.667000000
C    -4.519000000    -0.652000000     6.980000000
H    -4.112000000    -1.136000000     7.864000000
C    -3.752000000     0.351000000     6.382000000
O    -2.482000000     0.747000000     6.906000000
C    -1.288000000     0.600000000     6.210000000
C    -0.349000000     1.664000000     6.213000000
H    -0.671000000     2.569000000     6.722000000
C     0.934000000     1.548000000     5.665000000
O     1.764000000     2.585000000     5.528000000
C     3.026000000     2.617000000     4.959000000
C     3.182000000     3.344000000     3.766000000
H     2.353000000     3.770000000     3.206000000
C     4.054000000     2.092000000     5.638000000
H     3.842000000     1.462000000     6.498000000
C     5.383000000     2.187000000     5.125000000
H     6.197000000     1.619000000     5.570000000
C     5.613000000     3.015000000     4.026000000
H     6.629000000     3.165000000     3.671000000
C     4.512000000     3.497000000     3.301000000
O     4.754000000     4.182000000     2.131000000
C     4.745000000     3.578000000     0.923000000
C     4.929000000     4.429000000    -0.183000000
H     5.177000000     5.485000000    -0.122000000
C     4.954000000     3.865000000    -1.451000000
O     5.052000000     4.647000000    -2.563000000
C     4.511000000     4.393000000    -3.806000000
C     3.132000000     4.267000000    -3.939000000
H     2.453000000     4.312000000    -3.092000000
C     5.360000000     4.380000000    -4.873000000
H     6.413000000     4.389000000    -4.602000000
C     4.796000000     4.342000000    -6.161000000
H     5.421000000     4.214000000    -7.041000000
C     3.406000000     4.413000000    -6.328000000
H     2.993000000     4.539000000    -7.325000000
C     2.526000000     4.283000000    -5.217000000
O     1.189000000     4.364000000    -5.385000000
C     0.261000000     3.481000000    -4.993000000
C    -0.979000000     3.948000000    -4.622000000
H    -1.211000000     5.004000000    -4.516000000
C    -1.972000000     3.019000000    -4.256000000
O    -3.190000000     3.437000000    -3.847000000
C    -4.335000000     2.689000000    -3.749000000
C    -4.863000000     2.099000000    -4.940000000
H    -4.391000000     2.135000000    -5.919000000
C    -6.025000000     1.360000000    -4.824000000
H    -6.387000000     0.823000000    -5.697000000
C    -6.574000000     1.149000000    -3.608000000
H    -7.346000000     0.390000000    -3.506000000
C    -6.124000000     1.801000000    -2.464000000
C    -5.014000000     2.665000000    -2.506000000
H    -4.634000000     3.229000000    -1.659000000
C    -2.123000000     2.607000000     0.550000000
H    -3.030000000     3.158000000     0.315000000
C    -1.681000000     1.551000000    -0.210000000
H    -2.171000000     1.220000000    -1.122000000
C    -0.605000000     0.780000000     0.163000000
H    -0.142000000     0.034000000    -0.530000000
C     0.105000000     1.086000000     1.322000000
H     1.085000000     0.680000000     1.556000000
C    -0.362000000     2.120000000     2.104000000
H     0.101000000     2.448000000     3.031000000
C    -1.563000000     2.830000000     1.811000000
C    -2.271000000     3.804000000     2.663000000
O    -2.163000000     3.765000000     3.868000000
O    -2.697000000     4.864000000     2.192000000
O    -5.764000000     4.876000000     0.531000000
H    -5.708000000     5.653000000    -0.024000000
H    -5.226000000     5.087000000     1.294000000
O     0.063000000     6.495000000     2.138000000
H    -0.181000000     5.976000000     2.904000000
H     0.807000000     6.028000000     1.760000000
O    -6.841000000     3.950000000     3.828000000
H    -6.148000000     4.609000000     3.796000000
H    -6.401000000     3.128000000     3.611000000
O    -5.041000000     7.919000000    -0.503000000
H    -4.113000000     7.701000000    -0.418000000
H    -5.140000000     8.738000000    -0.018000000
O     0.692000000     9.284000000     2.657000000
H     0.627000000     8.329000000     2.629000000
H     1.615000000     9.467000000     2.480000000
O     0.196000000     4.643000000     4.538000000
H    -0.677000000     4.297000000     4.351000000
H     0.677000000     3.898000000     4.897000000
O    -2.523000000     4.615000000     6.466000000
H    -2.501000000     4.164000000     5.622000000
H    -3.372000000     5.057000000     6.479000000
O    -4.540000000     5.452000000     3.924000000
H    -4.174000000     5.364000000     4.804000000
H    -3.836000000     5.168000000     3.342000000
O    -0.269000000     5.255000000     7.845000000
H    -1.092000000     4.922000000     7.489000000
H     0.245000000     5.496000000     7.074000000
O    -4.980000000     7.694000000     2.558000000
H    -4.942000000     6.895000000     3.085000000
H    -4.384000000     7.527000000     1.828000000
O    -3.167000000     9.497000000     3.164000000
H    -3.766000000     8.786000000     3.396000000
H    -2.856000000     9.831000000     4.005000000
O    -1.424000000     5.189000000    -1.217000000
H    -1.998000000     5.443000000    -1.940000000
H    -1.778000000     5.652000000    -0.458000000
O    -2.711000000     6.823000000     0.672000000
H    -2.045000000     7.483000000     0.862000000
H    -2.530000000     6.115000000     1.291000000
O     2.163000000     5.572000000     0.429000000
H     1.764000000     4.749000000     0.147000000
H     2.234000000     6.091000000    -0.372000000
O    -1.498000000     9.261000000     1.126000000
H    -2.229000000     9.310000000     1.742000000
H    -0.725000000     9.150000000     1.680000000
O     1.397000000     6.555000000     6.114000000
H     1.035000000     7.432000000     5.988000000
H     1.315000000     6.136000000     5.258000000
O    -2.549000000     3.411000000     9.217000000
H    -3.439000000     3.526000000     9.551000000
H    -2.585000000     3.743000000     8.320000000
O    -5.088000000     4.698000000     6.585000000
H    -5.648000000     5.462000000     6.724000000
H    -5.640000000     3.951000000     6.817000000
O     0.760000000     3.632000000    -0.644000000
H     0.320000000     2.816000000    -0.405000000
H     0.054000000     4.206000000    -0.942000000
