215
-1470.62771
C     1.615000000     0.276000000     5.042000000
H     2.582000000     0.374000000     4.554000000
C     0.729000000    -0.821000000     4.839000000
C    -0.557000000    -0.850000000     5.460000000
H    -1.187000000    -1.736000000     5.422000000
C     1.058000000    -1.915000000     3.873000000
O     2.501000000    -2.148000000     3.850000000
H     0.870000000    -1.540000000     2.857000000
O     0.413000000    -3.084000000     4.161000000
C    -0.163000000    -3.835000000     3.098000000
C    -1.513000000    -3.489000000     2.844000000
H    -2.058000000    -2.915000000     3.589000000
C    -2.147000000    -3.932000000     1.640000000
O    -3.442000000    -3.453000000     1.320000000
C    -1.392000000    -4.605000000     0.662000000
C    -1.900000000    -4.997000000    -0.766000000
H    -1.325000000    -5.876000000    -1.064000000
C    -1.676000000    -3.889000000    -1.767000000
C    -0.634000000    -3.983000000    -2.678000000
H    -0.033000000    -4.888000000    -2.644000000
H    -2.937000000    -5.316000000    -0.640000000
C    -0.098000000    -4.931000000     0.981000000
H     0.512000000    -5.467000000     0.258000000
C     0.538000000    -4.520000000     2.176000000
C     2.049000000    -4.687000000     2.399000000
H     2.431000000    -5.570000000     1.883000000
H     2.331000000    -4.729000000     3.453000000
C     2.870000000    -3.569000000     1.881000000
C     3.307000000    -3.661000000     0.585000000
H     3.077000000    -4.569000000     0.033000000
C     3.064000000    -2.433000000     2.650000000
C     3.767000000    -1.333000000     2.120000000
H     3.856000000    -0.383000000     2.640000000
C     4.290000000    -1.443000000     0.806000000
O     4.830000000    -0.319000000     0.288000000
C     4.103000000     0.409000000    -0.693000000
C     4.239000000     1.905000000    -0.478000000
C     4.304000000     2.811000000    -1.516000000
H     4.348000000     2.440000000    -2.537000000
C     4.349000000     2.359000000     0.835000000
H     4.178000000     1.676000000     1.663000000
O     4.683000000    -0.068000000    -1.896000000
H     3.053000000     0.088000000    -0.628000000
C     4.116000000    -2.640000000     0.074000000
C     4.600000000    -2.841000000    -1.281000000
H     4.672000000    -3.915000000    -1.469000000
H     5.618000000    -2.446000000    -1.318000000
C     3.710000000    -2.271000000    -2.399000000
C     2.729000000    -2.969000000    -3.104000000
H     2.541000000    -4.011000000    -2.859000000
C     3.817000000    -0.846000000    -2.628000000
C     2.848000000    -0.215000000    -3.355000000
H     2.772000000     0.869000000    -3.342000000
C     1.879000000    -0.883000000    -4.107000000
O     0.925000000    -0.115000000    -4.757000000
C    -0.371000000     0.089000000    -4.173000000
C    -0.828000000     1.506000000    -4.492000000
C     0.067000000     2.520000000    -4.651000000
H     1.129000000     2.292000000    -4.646000000
C    -2.200000000     1.709000000    -4.429000000
H    -2.834000000     0.874000000    -4.142000000
O    -1.295000000    -0.903000000    -4.523000000
H    -0.228000000    -0.016000000    -3.087000000
C     1.807000000    -2.307000000    -4.035000000
C     0.655000000    -3.049000000    -4.646000000
H     0.834000000    -4.105000000    -4.856000000
H     0.382000000    -2.700000000    -5.644000000
C    -0.440000000    -2.958000000    -3.615000000
C    -1.449000000    -1.976000000    -3.660000000
C    -2.549000000    -1.896000000    -2.832000000
H    -3.248000000    -1.095000000    -3.060000000
C    -2.707000000    -2.923000000    -1.891000000
O    -3.745000000    -2.887000000    -1.018000000
C    -3.487000000    -2.410000000     0.340000000
H    -2.538000000    -1.855000000     0.309000000
C    -4.579000000    -1.372000000     0.682000000
C    -4.726000000    -0.866000000     2.014000000
H    -4.296000000    -1.461000000     2.816000000
C    -5.336000000    -0.751000000    -0.336000000
H    -5.214000000    -1.064000000    -1.370000000
C    -6.035000000     0.469000000    -0.053000000
O    -6.684000000     1.141000000    -1.048000000
C    -6.182000000     0.950000000     1.279000000
H    -6.660000000     1.922000000     1.379000000
C    -5.551000000     0.222000000     2.301000000
O    -5.601000000     0.874000000     3.535000000
C    -5.175000000     0.350000000     4.756000000
C    -3.887000000     0.570000000     5.211000000
H    -3.213000000     1.167000000     4.600000000
C    -6.045000000    -0.435000000     5.581000000
H    -6.991000000    -0.717000000     5.125000000
C    -5.488000000    -1.121000000     6.663000000
H    -6.104000000    -1.699000000     7.347000000
C    -4.135000000    -0.909000000     7.030000000
H    -3.706000000    -1.354000000     7.925000000
C    -3.329000000    -0.063000000     6.327000000
O    -2.145000000     0.264000000     6.914000000
C    -0.976000000     0.260000000     6.202000000
C    -0.231000000     1.440000000     6.187000000
H    -0.616000000     2.331000000     6.675000000
C     1.082000000     1.409000000     5.709000000
O     1.759000000     2.595000000     5.647000000
C     2.982000000     2.680000000     5.134000000
C     3.277000000     3.507000000     4.015000000
H     2.499000000     4.131000000     3.582000000
C     4.027000000     1.970000000     5.700000000
H     3.773000000     1.407000000     6.595000000
C     5.349000000     2.089000000     5.224000000
H     6.161000000     1.547000000     5.701000000
C     5.556000000     2.812000000     4.071000000
H     6.547000000     2.940000000     3.645000000
C     4.528000000     3.534000000     3.476000000
O     4.754000000     4.242000000     2.343000000
C     4.440000000     3.763000000     1.103000000
C     4.395000000     4.717000000     0.051000000
H     4.600000000     5.764000000     0.259000000
C     4.330000000     4.261000000    -1.303000000
O     4.416000000     5.213000000    -2.310000000
C     3.821000000     5.016000000    -3.536000000
C     2.471000000     4.776000000    -3.675000000
H     1.872000000     4.752000000    -2.767000000
C     4.545000000     4.937000000    -4.764000000
H     5.610000000     5.080000000    -4.602000000
C     3.927000000     4.750000000    -6.012000000
H     4.516000000     4.675000000    -6.923000000
C     2.528000000     4.781000000    -6.080000000
H     1.910000000     4.885000000    -6.967000000
C     1.790000000     4.785000000    -4.911000000
O     0.459000000     4.864000000    -4.898000000
C    -0.449000000     3.830000000    -4.765000000
C    -1.778000000     4.064000000    -4.906000000
H    -2.130000000     5.059000000    -5.164000000
C    -2.683000000     3.004000000    -4.647000000
O    -3.986000000     3.234000000    -4.382000000
C    -4.946000000     2.285000000    -4.047000000
C    -5.546000000     1.444000000    -5.028000000
H    -5.307000000     1.571000000    -6.081000000
C    -6.500000000     0.480000000    -4.644000000
H    -6.928000000    -0.120000000    -5.443000000
C    -6.882000000     0.326000000    -3.364000000
H    -7.638000000    -0.367000000    -3.003000000
C    -6.235000000     1.170000000    -2.351000000
C    -5.250000000     2.149000000    -2.738000000
H    -4.830000000     2.759000000    -1.942000000
C    -1.515000000     1.108000000     0.145000000
H    -2.405000000     1.222000000    -0.468000000
C    -0.685000000     0.022000000    -0.125000000
H    -0.893000000    -0.738000000    -0.874000000
C     0.489000000    -0.183000000     0.615000000
H     1.015000000    -1.142000000     0.466000000
C     0.804000000     0.719000000     1.639000000
H     1.734000000     0.598000000     2.188000000
C    -0.033000000     1.857000000     1.840000000
H     0.224000000     2.518000000     2.664000000
C    -1.199000000     2.082000000     1.048000000
C    -2.022000000     3.347000000     1.200000000
O    -1.771000000     4.134000000     2.086000000
O    -2.973000000     3.556000000     0.459000000
O    -5.210000000     5.120000000     0.664000000
H    -5.060000000     5.767000000     1.353000000
H    -4.395000000     4.619000000     0.624000000
O     0.427000000     7.264000000    -1.848000000
H     0.485000000     6.451000000    -1.347000000
H     1.337000000     7.493000000    -2.040000000
O    -4.404000000     7.643000000     2.405000000
H    -4.424000000     7.909000000     3.324000000
H    -3.473000000     7.595000000     2.189000000
O     1.389000000     7.537000000     2.421000000
H     1.350000000     8.044000000     1.610000000
H     1.361000000     6.624000000     2.134000000
O    -1.976000000     7.053000000    -3.267000000
H    -1.055000000     7.253000000    -3.434000000
H    -1.968000000     6.553000000    -2.451000000
O     0.537000000     8.400000000     5.117000000
H    -0.157000000     7.779000000     4.896000000
H     0.948000000     8.609000000     4.278000000
O    -1.581000000     7.775000000     2.006000000
H    -1.398000000     8.265000000     1.205000000
H    -0.830000000     7.189000000     2.105000000
O    -0.838000000     5.024000000     4.870000000
H    -0.528000000     4.216000000     4.462000000
H    -1.693000000     5.182000000     4.469000000
O    -3.832000000     4.076000000     4.210000000
H    -4.676000000     3.649000000     4.066000000
H    -3.408000000     4.064000000     3.352000000
O    -1.169000000     9.023000000    -0.378000000
H    -0.716000000     8.323000000    -0.847000000
H    -0.726000000     9.824000000    -0.658000000
O    -4.606000000     5.734000000    -2.159000000
H    -4.550000000     6.687000000    -2.081000000
H    -4.662000000     5.423000000    -1.255000000
O    -6.808000000     5.230000000     3.936000000
H    -6.227000000     5.769000000     3.398000000
H    -7.487000000     4.933000000     3.330000000
O    -4.336000000     3.432000000     6.856000000
H    -5.181000000     3.025000000     6.664000000
H    -4.023000000     3.744000000     6.007000000
O    -1.937000000     5.276000000    -1.267000000
H    -2.266000000     4.842000000    -0.480000000
H    -2.601000000     5.097000000    -1.933000000
O     0.436000000     5.393000000     1.269000000
H    -0.367000000     5.018000000     1.630000000
H     0.689000000     4.791000000     0.569000000
O    -7.955000000     4.276000000    -0.880000000
H    -8.292000000     3.408000000    -0.661000000
H    -7.241000000     4.420000000    -0.260000000
O     1.717000000     5.555000000     6.080000000
H     0.838000000     5.182000000     6.005000000
H     1.641000000     6.426000000     5.691000000
O    -4.096000000     8.370000000    -1.889000000
H    -4.088000000     9.014000000    -1.181000000
H    -3.196000000     8.047000000    -1.929000000
O     0.143000000     3.565000000    -1.527000000
H    -0.247000000     2.740000000    -1.819000000
H    -0.592000000     4.064000000    -1.171000000
