215
-1473.00179
C     1.408000000     0.149000000     4.901000000
H     2.345000000    -0.218000000     4.488000000
C     0.278000000    -0.572000000     4.572000000
C    -0.983000000    -0.099000000     4.957000000
H    -1.872000000    -0.703000000     4.793000000
C     0.337000000    -1.851000000     3.754000000
O     1.645000000    -2.452000000     3.907000000
H     0.219000000    -1.483000000     2.724000000
O    -0.704000000    -2.844000000     4.058000000
C    -1.187000000    -3.453000000     2.961000000
C    -2.465000000    -3.024000000     2.623000000
H    -3.036000000    -2.325000000     3.229000000
C    -2.997000000    -3.385000000     1.378000000
O    -4.188000000    -2.734000000     0.985000000
C    -2.417000000    -4.328000000     0.541000000
C    -2.978000000    -4.714000000    -0.801000000
H    -2.584000000    -5.716000000    -0.988000000
C    -2.571000000    -3.654000000    -1.820000000
C    -1.389000000    -3.857000000    -2.559000000
H    -0.824000000    -4.780000000    -2.460000000
H    -4.047000000    -4.823000000    -0.607000000
C    -1.135000000    -4.819000000     0.928000000
H    -0.638000000    -5.472000000     0.216000000
C    -0.492000000    -4.334000000     2.096000000
C     0.874000000    -4.819000000     2.446000000
H     1.081000000    -5.792000000     1.998000000
H     0.863000000    -5.027000000     3.518000000
C     2.023000000    -3.908000000     1.982000000
C     2.627000000    -4.217000000     0.771000000
H     2.353000000    -5.117000000     0.225000000
C     2.311000000    -2.818000000     2.755000000
C     3.223000000    -1.884000000     2.225000000
H     3.573000000    -0.999000000     2.749000000
C     3.813000000    -2.060000000     0.965000000
O     4.695000000    -1.113000000     0.566000000
C     4.339000000    -0.233000000    -0.536000000
C     4.738000000     1.220000000    -0.354000000
C     4.936000000     2.096000000    -1.442000000
H     4.869000000     1.754000000    -2.471000000
C     4.842000000     1.792000000     0.876000000
H     4.756000000     1.094000000     1.706000000
O     4.711000000    -0.797000000    -1.842000000
H     3.240000000    -0.201000000    -0.542000000
C     3.565000000    -3.263000000     0.236000000
C     4.186000000    -3.552000000    -1.142000000
H     4.229000000    -4.594000000    -1.467000000
H     5.231000000    -3.258000000    -1.025000000
C     3.432000000    -2.741000000    -2.192000000
C     2.260000000    -3.306000000    -2.764000000
H     1.954000000    -4.302000000    -2.455000000
C     3.834000000    -1.458000000    -2.623000000
C     3.040000000    -0.652000000    -3.434000000
H     3.321000000     0.355000000    -3.732000000
C     1.920000000    -1.221000000    -4.064000000
O     1.044000000    -0.500000000    -4.826000000
C    -0.150000000     0.019000000    -4.200000000
C    -0.417000000     1.506000000    -4.494000000
C     0.600000000     2.373000000    -4.783000000
H     1.582000000     2.000000000    -5.064000000
C    -1.650000000     2.010000000    -4.256000000
H    -2.450000000     1.302000000    -4.053000000
O    -1.363000000    -0.752000000    -4.608000000
H    -0.098000000     0.043000000    -3.101000000
C     1.501000000    -2.543000000    -3.741000000
C     0.263000000    -3.187000000    -4.390000000
H     0.399000000    -4.270000000    -4.422000000
H     0.151000000    -2.799000000    -5.405000000
C    -0.961000000    -2.907000000    -3.502000000
C    -1.815000000    -1.828000000    -3.811000000
C    -2.990000000    -1.641000000    -3.100000000
H    -3.534000000    -0.714000000    -3.262000000
C    -3.281000000    -2.446000000    -2.023000000
O    -4.366000000    -2.082000000    -1.243000000
C    -4.066000000    -1.619000000     0.098000000
H    -3.010000000    -1.341000000    -0.034000000
C    -4.913000000    -0.503000000     0.579000000
C    -5.164000000    -0.349000000     1.931000000
H    -4.670000000    -0.986000000     2.660000000
C    -5.390000000     0.402000000    -0.347000000
H    -5.159000000     0.226000000    -1.395000000
C    -6.185000000     1.499000000     0.055000000
O    -6.740000000     2.447000000    -0.871000000
C    -6.490000000     1.604000000     1.417000000
H    -7.200000000     2.367000000     1.728000000
C    -5.931000000     0.731000000     2.334000000
O    -6.221000000     0.940000000     3.715000000
C    -5.343000000     0.463000000     4.689000000
C    -4.284000000     1.275000000     4.995000000
H    -4.046000000     2.134000000     4.372000000
C    -5.649000000    -0.645000000     5.499000000
H    -6.505000000    -1.294000000     5.330000000
C    -4.698000000    -1.078000000     6.385000000
H    -5.028000000    -1.871000000     7.051000000
C    -3.640000000    -0.197000000     6.763000000
H    -2.959000000    -0.452000000     7.570000000
C    -3.380000000     0.923000000     6.011000000
O    -2.217000000     1.648000000     6.229000000
C    -1.035000000     1.123000000     5.696000000
C     0.105000000     1.743000000     6.073000000
H     0.153000000     2.544000000     6.807000000
C     1.296000000     1.280000000     5.633000000
O     2.425000000     1.968000000     5.961000000
C     3.570000000     1.895000000     5.226000000
C     3.828000000     2.837000000     4.198000000
H     3.040000000     3.523000000     3.898000000
C     4.531000000     0.969000000     5.641000000
H     4.371000000     0.307000000     6.488000000
C     5.754000000     0.964000000     4.948000000
H     6.585000000     0.279000000     5.101000000
C     5.999000000     1.858000000     3.902000000
H     6.923000000     1.817000000     3.330000000
C     5.091000000     2.829000000     3.574000000
O     5.205000000     3.581000000     2.455000000
C     5.074000000     3.176000000     1.142000000
C     5.167000000     4.016000000     0.004000000
H     5.333000000     5.087000000     0.086000000
C     5.105000000     3.499000000    -1.316000000
O     5.389000000     4.342000000    -2.425000000
C     4.792000000     4.211000000    -3.666000000
C     3.399000000     4.405000000    -3.763000000
H     2.792000000     4.598000000    -2.882000000
C     5.522000000     3.991000000    -4.799000000
H     6.589000000     3.787000000    -4.747000000
C     4.857000000     3.820000000    -6.057000000
H     5.429000000     3.516000000    -6.931000000
C     3.495000000     4.153000000    -6.148000000
H     3.001000000     4.018000000    -7.107000000
C     2.763000000     4.404000000    -4.991000000
O     1.420000000     4.726000000    -5.082000000
C     0.424000000     3.796000000    -4.777000000
C    -0.871000000     4.307000000    -4.560000000
H    -1.079000000     5.373000000    -4.530000000
C    -1.869000000     3.347000000    -4.221000000
O    -3.046000000     3.953000000    -3.680000000
C    -4.224000000     3.172000000    -3.574000000
C    -4.855000000     2.566000000    -4.619000000
H    -4.314000000     2.680000000    -5.555000000
C    -6.095000000     1.900000000    -4.449000000
H    -6.502000000     1.382000000    -5.313000000
C    -6.696000000     1.846000000    -3.176000000
H    -7.600000000     1.252000000    -3.074000000
C    -6.117000000     2.600000000    -2.148000000
C    -4.865000000     3.260000000    -2.306000000
H    -4.406000000     3.858000000    -1.523000000
C    -1.844000000     1.435000000     0.208000000
H    -2.882000000     1.640000000    -0.041000000
C    -1.080000000     0.472000000    -0.440000000
H    -1.572000000    -0.081000000    -1.236000000
C     0.257000000     0.157000000    -0.004000000
H     0.809000000    -0.592000000    -0.515000000
C     0.725000000     0.817000000     1.119000000
H     1.695000000     0.562000000     1.536000000
C    -0.050000000     1.755000000     1.779000000
H     0.495000000     2.222000000     2.595000000
C    -1.313000000     2.063000000     1.346000000
C    -2.160000000     3.195000000     2.024000000
O    -1.764000000     3.613000000     3.064000000
O    -3.158000000     3.680000000     1.489000000
O    -5.592000000     4.952000000     1.690000000
H    -5.403000000     5.040000000     2.624000000
H    -4.864000000     4.433000000     1.347000000
O    -0.825000000     6.005000000     1.614000000
H    -1.395000000     5.446000000     2.143000000
H    -0.071000000     5.452000000     1.409000000
O     0.478000000     8.579000000     2.652000000
H    -0.020000000     9.254000000     3.114000000
H    -0.180000000     7.938000000     2.384000000
O    -6.542000000     4.018000000     4.540000000
H    -5.968000000     4.528000000     5.112000000
H    -6.278000000     3.109000000     4.685000000
O     1.991000000     6.132000000     3.271000000
H     1.975000000     5.581000000     2.488000000
H     1.937000000     7.027000000     2.935000000
O    -5.398000000     7.620000000     0.647000000
H    -4.537000000     7.325000000     0.349000000
H    -5.811000000     6.833000000     1.002000000
O    -0.023000000     5.112000000     4.695000000
H    -0.371000000     4.387000000     4.174000000
H     0.588000000     5.557000000     4.108000000
O    -1.526000000     4.664000000     6.776000000
H    -0.819000000     5.025000000     6.240000000
H    -1.834000000     3.902000000     6.285000000
O    -3.109000000     5.700000000     4.264000000
H    -2.807000000     5.580000000     5.164000000
H    -2.743000000     4.954000000     3.788000000
O    -0.111000000     5.486000000    -1.485000000
H    -0.095000000     5.551000000    -0.530000000
H     0.335000000     4.661000000    -1.676000000
O    -5.006000000     8.775000000     3.178000000
H    -5.113000000     8.119000000     2.489000000
H    -4.082000000     8.718000000     3.422000000
O    -2.403000000     8.263000000     3.533000000
H    -2.569000000     7.322000000     3.583000000
H    -2.340000000     8.544000000     4.446000000
O    -3.570000000     7.450000000    -2.754000000
H    -3.795000000     6.836000000    -2.055000000
H    -2.639000000     7.628000000    -2.626000000
O    -3.158000000     5.727000000    -0.435000000
H    -2.477000000     5.437000000    -1.043000000
H    -2.967000000     5.260000000     0.378000000
O     1.515000000     5.049000000     0.793000000
H     2.106000000     5.735000000     0.482000000
H     1.675000000     4.311000000     0.204000000
O    -8.047000000     4.625000000     0.623000000
H    -8.229000000     3.817000000     0.143000000
H    -7.157000000     4.511000000     0.956000000
O     2.525000000     5.544000000     6.112000000
H     1.706000000     5.256000000     5.708000000
H     2.956000000     6.065000000     5.435000000
O    -4.926000000     5.078000000     6.379000000
H    -4.963000000     5.950000000     6.771000000
H    -4.753000000     4.492000000     7.115000000
O     0.923000000     2.869000000    -1.217000000
H     0.599000000     2.305000000    -1.920000000
H     1.024000000     2.283000000    -0.467000000
