215
-1442.85334
C     0.858000000     0.020000000     5.184000000
H     1.711000000    -0.104000000     4.522000000
C    -0.198000000    -0.855000000     5.015000000
C    -1.420000000    -0.527000000     5.571000000
H    -2.274000000    -1.170000000     5.375000000
C    -0.092000000    -2.022000000     3.969000000
O     1.244000000    -2.644000000     4.035000000
H    -0.167000000    -1.492000000     3.008000000
O    -1.250000000    -2.898000000     4.020000000
C    -1.789000000    -3.278000000     2.800000000
C    -2.953000000    -2.695000000     2.376000000
H    -3.519000000    -1.957000000     2.938000000
C    -3.491000000    -2.917000000     1.153000000
O    -4.418000000    -2.034000000     0.619000000
C    -3.027000000    -4.003000000     0.431000000
C    -3.509000000    -4.191000000    -1.089000000
H    -3.462000000    -5.264000000    -1.286000000
C    -2.769000000    -3.295000000    -2.100000000
C    -1.604000000    -3.750000000    -2.752000000
H    -1.214000000    -4.735000000    -2.508000000
H    -4.583000000    -4.027000000    -1.194000000
C    -1.951000000    -4.715000000     0.878000000
H    -1.577000000    -5.550000000     0.290000000
C    -1.321000000    -4.358000000     2.081000000
C    -0.008000000    -5.018000000     2.525000000
H    -0.059000000    -6.035000000     2.129000000
H     0.073000000    -5.123000000     3.609000000
C     1.198000000    -4.219000000     2.117000000
C     1.878000000    -4.541000000     0.952000000
H     1.434000000    -5.346000000     0.371000000
C     1.776000000    -3.212000000     2.892000000
C     2.934000000    -2.620000000     2.430000000
H     3.451000000    -1.875000000     3.030000000
C     3.504000000    -2.923000000     1.192000000
O     4.623000000    -2.203000000     0.795000000
C     4.500000000    -1.267000000    -0.370000000
C     5.192000000     0.097000000    -0.041000000
C     5.539000000     0.914000000    -1.081000000
H     5.451000000     0.520000000    -2.090000000
C     5.148000000     0.650000000     1.244000000
H     4.829000000     0.034000000     2.081000000
O     4.932000000    -1.855000000    -1.588000000
H     3.429000000    -1.014000000    -0.349000000
C     2.917000000    -3.855000000     0.373000000
C     3.545000000    -4.345000000    -0.871000000
H     3.155000000    -5.336000000    -1.109000000
H     4.619000000    -4.534000000    -0.828000000
C     3.229000000    -3.526000000    -2.078000000
C     2.002000000    -3.819000000    -2.714000000
H     1.428000000    -4.703000000    -2.446000000
C     3.835000000    -2.274000000    -2.324000000
C     3.251000000    -1.453000000    -3.245000000
H     3.685000000    -0.489000000    -3.497000000
C     2.104000000    -1.762000000    -3.924000000
O     1.542000000    -0.670000000    -4.559000000
C     0.178000000    -0.160000000    -4.245000000
C     0.088000000     1.280000000    -4.402000000
C     1.180000000     2.100000000    -4.132000000
H     2.080000000     1.659000000    -3.712000000
C    -1.103000000     1.924000000    -4.886000000
H    -1.985000000     1.327000000    -5.106000000
O    -0.920000000    -0.831000000    -4.807000000
H     0.004000000    -0.166000000    -3.159000000
C     1.500000000    -2.993000000    -3.706000000
C     0.266000000    -3.394000000    -4.465000000
H     0.217000000    -4.476000000    -4.610000000
H     0.228000000    -3.001000000    -5.483000000
C    -1.051000000    -2.998000000    -3.772000000
C    -1.590000000    -1.768000000    -4.061000000
C    -2.612000000    -1.229000000    -3.326000000
H    -2.920000000    -0.202000000    -3.504000000
C    -3.235000000    -1.950000000    -2.312000000
O    -4.270000000    -1.333000000    -1.645000000
C    -3.901000000    -0.986000000    -0.251000000
H    -2.811000000    -1.071000000    -0.134000000
C    -4.488000000     0.374000000     0.160000000
C    -4.710000000     0.770000000     1.521000000
H    -4.513000000     0.099000000     2.353000000
C    -4.755000000     1.281000000    -0.908000000
H    -4.492000000     0.937000000    -1.905000000
C    -5.090000000     2.575000000    -0.596000000
O    -5.320000000     3.473000000    -1.634000000
C    -5.143000000     3.007000000     0.680000000
H    -5.272000000     4.060000000     0.918000000
C    -5.100000000     2.081000000     1.758000000
O    -5.217000000     2.577000000     3.070000000
C    -5.211000000     1.839000000     4.211000000
C    -3.981000000     1.621000000     4.985000000
H    -3.081000000     2.103000000     4.612000000
C    -6.463000000     1.356000000     4.758000000
H    -7.398000000     1.711000000     4.332000000
C    -6.410000000     0.533000000     5.946000000
H    -7.319000000     0.160000000     6.411000000
C    -5.168000000     0.225000000     6.560000000
H    -5.141000000    -0.396000000     7.453000000
C    -3.978000000     0.783000000     6.162000000
O    -2.853000000     0.736000000     6.938000000
C    -1.559000000     0.578000000     6.346000000
C    -0.513000000     1.511000000     6.577000000
H    -0.761000000     2.429000000     7.103000000
C     0.698000000     1.210000000     5.944000000
O     1.702000000     2.160000000     5.776000000
C     3.014000000     2.009000000     5.457000000
C     3.467000000     2.496000000     4.212000000
H     2.845000000     3.003000000     3.479000000
C     3.835000000     1.262000000     6.278000000
H     3.446000000     1.031000000     7.266000000
C     5.171000000     1.110000000     5.917000000
H     5.907000000     0.622000000     6.551000000
C     5.606000000     1.543000000     4.687000000
H     6.657000000     1.422000000     4.438000000
C     4.773000000     2.210000000     3.802000000
O     5.344000000     2.703000000     2.616000000
C     5.476000000     2.014000000     1.418000000
C     5.796000000     2.816000000     0.324000000
H     6.198000000     3.814000000     0.476000000
C     5.931000000     2.208000000    -0.911000000
O     6.359000000     3.002000000    -1.918000000
C     5.618000000     3.125000000    -3.077000000
C     4.307000000     3.609000000    -2.987000000
H     3.798000000     3.740000000    -2.036000000
C     6.242000000     2.987000000    -4.360000000
H     7.271000000     2.636000000    -4.388000000
C     5.549000000     3.307000000    -5.544000000
H     6.057000000     3.142000000    -6.491000000
C     4.206000000     3.794000000    -5.405000000
H     3.619000000     4.098000000    -6.268000000
C     3.580000000     3.874000000    -4.152000000
O     2.285000000     4.296000000    -3.986000000
C     1.162000000     3.499000000    -4.294000000
C    -0.067000000     4.111000000    -4.662000000
H    -0.105000000     5.189000000    -4.795000000
C    -1.172000000     3.372000000    -4.929000000
O    -2.276000000     4.030000000    -5.365000000
C    -3.525000000     3.785000000    -4.856000000
C    -4.606000000     3.904000000    -5.713000000
H    -4.481000000     4.190000000    -6.754000000
C    -5.840000000     3.659000000    -5.239000000
H    -6.722000000     3.845000000    -5.846000000
C    -6.091000000     3.447000000    -3.890000000
H    -7.110000000     3.647000000    -3.570000000
C    -5.070000000     3.262000000    -3.021000000
C    -3.746000000     3.495000000    -3.501000000
H    -2.931000000     3.472000000    -2.781000000
C     0.273000000     1.886000000    -0.977000000
H    -0.409000000     2.324000000    -1.701000000
C     0.058000000     0.556000000    -0.721000000
H    -0.690000000     0.060000000    -1.335000000
C     0.738000000    -0.155000000     0.301000000
H     0.562000000    -1.230000000     0.589000000
C     1.767000000     0.557000000     0.918000000
H     2.359000000     0.066000000     1.685000000
C     2.065000000     1.877000000     0.615000000
H     2.837000000     2.450000000     1.122000000
C     1.311000000     2.571000000    -0.370000000
C     1.484000000     4.080000000    -0.654000000
O     2.439000000     4.685000000    -0.217000000
O     0.502000000     4.644000000    -1.173000000
O    -3.597000000     6.996000000     2.495000000
H    -3.286000000     6.109000000     2.677000000
H    -3.275000000     7.186000000     1.613000000
O     4.071000000     6.534000000    -1.385000000
H     3.884000000     5.734000000    -0.895000000
H     3.226000000     6.981000000    -1.446000000
O    -0.809000000     7.247000000     4.413000000
H    -0.678000000     7.749000000     3.608000000
H    -0.415000000     6.394000000     4.229000000
O     5.419000000     8.435000000    -2.953000000
H     4.845000000     7.721000000    -2.674000000
H     4.830000000     9.178000000    -3.083000000
O    -2.002000000     7.699000000    -0.466000000
H    -1.250000000     7.799000000     0.118000000
H    -1.970000000     8.471000000    -1.032000000
O     0.412000000     4.820000000     4.202000000
H    -0.193000000     4.082000000     4.131000000
H     0.975000000     4.743000000     3.431000000
O     2.215000000     5.692000000     2.323000000
H     2.424000000     5.371000000     1.445000000
H     3.060000000     5.727000000     2.772000000
O    -0.722000000     2.131000000     2.397000000
H    -0.592000000     1.497000000     3.101000000
H    -0.579000000     1.631000000     1.594000000
O     4.654000000     5.673000000     3.865000000
H     5.280000000     6.295000000     3.493000000
H     5.187000000     4.918000000     4.115000000
O     0.177000000     7.705000000     1.027000000
H     0.370000000     6.784000000     1.201000000
H     0.904000000     8.182000000     1.427000000
O     2.096000000     9.128000000     2.153000000
H     2.299000000     8.982000000     3.077000000
H     2.795000000     8.676000000     1.680000000
O     1.591000000     2.519000000    -7.192000000
H     1.654000000     1.698000000    -7.680000000
H     1.203000000     2.269000000    -6.353000000
O     4.407000000     8.002000000     0.857000000
H     5.223000000     7.759000000     1.295000000
H     4.519000000     7.698000000    -0.044000000
O     6.952000000     5.792000000    -1.211000000
H     6.909000000     4.903000000    -1.562000000
H     6.183000000     6.231000000    -1.575000000
O    -3.756000000     6.958000000    -3.051000000
H    -4.025000000     7.647000000    -2.444000000
H    -3.169000000     6.402000000    -2.539000000
O    -2.086000000     5.003000000    -1.179000000
H    -1.162000000     4.753000000    -1.187000000
H    -2.087000000     5.904000000    -0.857000000
O     1.421000000     8.691000000    -4.018000000
H     0.811000000     8.228000000    -4.592000000
H     1.361000000     8.229000000    -3.182000000
O    -2.760000000     4.186000000     2.761000000
H    -1.933000000     3.719000000     2.644000000
H    -3.381000000     3.719000000     2.202000000
O     1.284000000     7.338000000    -1.738000000
H     0.841000000     7.777000000    -1.012000000
H     0.883000000     6.469000000    -1.773000000
