215
-1470.28612
C     0.453000000     0.280000000     4.872000000
H     1.407000000     0.270000000     4.353000000
C    -0.507000000    -0.739000000     4.679000000
C    -1.819000000    -0.552000000     5.203000000
H    -2.636000000    -1.224000000     4.956000000
C    -0.208000000    -1.904000000     3.779000000
O     1.079000000    -2.517000000     4.112000000
H    -0.168000000    -1.483000000     2.763000000
O    -1.267000000    -2.955000000     3.838000000
C    -1.771000000    -3.494000000     2.677000000
C    -2.840000000    -2.866000000     2.099000000
H    -3.456000000    -2.081000000     2.530000000
C    -3.255000000    -3.212000000     0.826000000
O    -4.269000000    -2.418000000     0.388000000
C    -2.670000000    -4.351000000     0.181000000
C    -3.054000000    -4.786000000    -1.229000000
H    -2.798000000    -5.836000000    -1.381000000
C    -2.482000000    -3.793000000    -2.216000000
C    -1.244000000    -4.088000000    -2.805000000
H    -0.827000000    -5.060000000    -2.554000000
H    -4.137000000    -4.774000000    -1.362000000
C    -1.561000000    -4.947000000     0.741000000
H    -1.164000000    -5.838000000     0.263000000
C    -1.047000000    -4.466000000     1.998000000
C     0.266000000    -5.000000000     2.535000000
H     0.480000000    -5.946000000     2.034000000
H     0.177000000    -5.201000000     3.605000000
C     1.415000000    -4.029000000     2.179000000
C     2.168000000    -4.251000000     1.031000000
H     1.816000000    -4.985000000     0.310000000
C     1.829000000    -2.976000000     3.016000000
C     2.978000000    -2.276000000     2.780000000
H     3.239000000    -1.448000000     3.435000000
C     3.636000000    -2.415000000     1.574000000
O     4.545000000    -1.533000000     1.196000000
C     4.215000000    -0.614000000     0.052000000
C     4.817000000     0.701000000     0.431000000
C     5.043000000     1.657000000    -0.545000000
H     4.949000000     1.417000000    -1.601000000
C     4.704000000     1.127000000     1.775000000
H     4.313000000     0.509000000     2.579000000
O     4.786000000    -1.102000000    -1.175000000
H     3.129000000    -0.445000000    -0.006000000
C     3.270000000    -3.455000000     0.704000000
C     4.145000000    -3.816000000    -0.530000000
H     4.197000000    -4.881000000    -0.766000000
H     5.178000000    -3.480000000    -0.421000000
C     3.461000000    -3.118000000    -1.705000000
C     2.468000000    -3.728000000    -2.431000000
H     2.137000000    -4.713000000    -2.113000000
C     3.989000000    -1.856000000    -2.003000000
C     3.363000000    -1.175000000    -3.107000000
H     3.669000000    -0.137000000    -3.211000000
C     2.288000000    -1.718000000    -3.719000000
O     1.585000000    -0.896000000    -4.610000000
C     0.306000000    -0.288000000    -4.206000000
C     0.236000000     1.195000000    -4.614000000
C     1.352000000     2.045000000    -4.473000000
H     2.320000000     1.792000000    -4.047000000
C    -0.974000000     1.723000000    -5.122000000
H    -1.852000000     1.101000000    -5.277000000
O    -0.727000000    -1.041000000    -4.781000000
H     0.168000000    -0.393000000    -3.120000000
C     1.869000000    -3.027000000    -3.437000000
C     0.738000000    -3.601000000    -4.271000000
H     0.823000000    -4.690000000    -4.267000000
H     0.730000000    -3.229000000    -5.298000000
C    -0.641000000    -3.249000000    -3.702000000
C    -1.289000000    -2.059000000    -4.006000000
C    -2.536000000    -1.758000000    -3.414000000
H    -3.056000000    -0.843000000    -3.686000000
C    -3.127000000    -2.603000000    -2.519000000
O    -4.221000000    -2.057000000    -1.831000000
C    -3.890000000    -1.462000000    -0.564000000
H    -2.805000000    -1.308000000    -0.656000000
C    -4.533000000    -0.037000000    -0.373000000
C    -5.031000000     0.317000000     0.875000000
H    -5.348000000    -0.408000000     1.620000000
C    -4.283000000     0.999000000    -1.316000000
H    -3.929000000     0.779000000    -2.320000000
C    -4.650000000     2.345000000    -0.988000000
O    -4.458000000     3.446000000    -1.820000000
C    -5.109000000     2.672000000     0.313000000
H    -5.255000000     3.736000000     0.487000000
C    -5.241000000     1.666000000     1.254000000
O    -5.944000000     2.032000000     2.421000000
C    -5.787000000     1.334000000     3.604000000
C    -4.564000000     1.283000000     4.313000000
H    -3.696000000     1.716000000     3.822000000
C    -6.959000000     0.859000000     4.234000000
H    -7.883000000     0.949000000     3.669000000
C    -6.932000000     0.156000000     5.430000000
H    -7.786000000    -0.333000000     5.893000000
C    -5.620000000     0.123000000     6.093000000
H    -5.531000000    -0.375000000     7.055000000
C    -4.479000000     0.659000000     5.523000000
O    -3.399000000     0.821000000     6.352000000
C    -2.095000000     0.558000000     5.930000000
C    -1.072000000     1.510000000     6.207000000
H    -1.365000000     2.444000000     6.680000000
C     0.200000000     1.443000000     5.629000000
O     1.072000000     2.511000000     5.790000000
C     2.474000000     2.288000000     5.677000000
C     3.147000000     2.521000000     4.469000000
H     2.623000000     2.764000000     3.549000000
C     3.181000000     1.831000000     6.784000000
H     2.722000000     1.707000000     7.761000000
C     4.591000000     1.812000000     6.773000000
H     5.183000000     1.521000000     7.638000000
C     5.290000000     2.134000000     5.639000000
H     6.376000000     2.184000000     5.651000000
C     4.509000000     2.469000000     4.485000000
O     5.171000000     2.935000000     3.376000000
C     5.139000000     2.415000000     2.071000000
C     5.612000000     3.251000000     1.088000000
H     6.055000000     4.196000000     1.391000000
C     5.388000000     2.929000000    -0.232000000
O     5.505000000     3.964000000    -1.113000000
C     5.197000000     3.762000000    -2.401000000
C     3.863000000     3.972000000    -2.789000000
H     3.090000000     4.236000000    -2.071000000
C     6.226000000     3.482000000    -3.304000000
H     7.250000000     3.363000000    -2.957000000
C     5.948000000     3.389000000    -4.657000000
H     6.794000000     3.280000000    -5.330000000
C     4.670000000     3.637000000    -5.061000000
H     4.348000000     3.721000000    -6.096000000
C     3.601000000     3.954000000    -4.165000000
O     2.333000000     4.277000000    -4.666000000
C     1.217000000     3.427000000    -4.781000000
C     0.094000000     3.933000000    -5.336000000
H    -0.046000000     5.011000000    -5.364000000
C    -0.973000000     3.080000000    -5.510000000
O    -2.122000000     3.623000000    -6.082000000
C    -3.305000000     3.520000000    -5.346000000
C    -4.395000000     3.161000000    -6.044000000
H    -4.236000000     2.902000000    -7.088000000
C    -5.558000000     2.984000000    -5.346000000
H    -6.490000000     2.811000000    -5.878000000
C    -5.587000000     3.079000000    -3.971000000
H    -6.531000000     2.947000000    -3.448000000
C    -4.434000000     3.371000000    -3.219000000
C    -3.282000000     3.620000000    -3.878000000
H    -2.340000000     3.759000000    -3.354000000
C    -0.120000000     2.487000000    -0.966000000
H    -0.429000000     3.326000000    -1.584000000
C    -0.705000000     1.228000000    -1.247000000
H    -1.467000000     1.129000000    -2.016000000
C    -0.214000000     0.094000000    -0.584000000
H    -0.611000000    -0.917000000    -0.854000000
C     0.800000000     0.261000000     0.327000000
H     1.252000000    -0.593000000     0.826000000
C     1.212000000     1.533000000     0.735000000
H     1.996000000     1.574000000     1.487000000
C     0.820000000     2.697000000     0.094000000
C     1.382000000     4.130000000     0.392000000
O     2.240000000     4.326000000     1.237000000
O     1.061000000     5.061000000    -0.267000000
O    -3.172000000     6.488000000     1.751000000
H    -2.552000000     5.797000000     1.517000000
H    -3.842000000     6.043000000     2.270000000
O     3.447000000     6.354000000    -0.695000000
H     2.633000000     5.988000000    -0.348000000
H     4.036000000     5.603000000    -0.766000000
O     5.699000000     7.553000000     1.707000000
H     6.601000000     7.252000000     1.812000000
H     5.615000000     7.739000000     0.772000000
O     0.824000000     4.628000000     3.408000000
H     1.386000000     4.810000000     4.161000000
H     1.420000000     4.629000000     2.659000000
O     3.529000000     6.255000000     2.823000000
H     3.256000000     5.560000000     2.225000000
H     4.435000000     6.441000000     2.577000000
O    -1.243000000     2.947000000     2.697000000
H    -0.542000000     3.589000000     2.810000000
H    -1.002000000     2.467000000     1.904000000
O     0.973000000     7.115000000     6.459000000
H     0.325000000     7.808000000     6.330000000
H     1.587000000     7.224000000     5.733000000
O     1.961000000     8.541000000     3.895000000
H     2.884000000     8.645000000     3.663000000
H     1.663000000     7.801000000     3.368000000
O     1.894000000     7.110000000    -5.839000000
H     1.734000000     7.245000000    -4.904000000
H     2.057000000     6.170000000    -5.920000000
O     4.301000000     7.173000000    -3.438000000
H     4.356000000     7.258000000    -2.486000000
H     3.680000000     6.457000000    -3.579000000
O    -0.964000000     5.230000000     5.704000000
H    -0.339000000     5.812000000     6.136000000
H    -0.423000000     4.662000000     5.156000000
O    -2.427000000     9.054000000     0.598000000
H    -2.513000000     8.449000000     1.334000000
H    -2.263000000     8.490000000    -0.158000000
O     4.875000000     8.831000000    -0.932000000
H     4.274000000     9.576000000    -0.927000000
H     4.305000000     8.063000000    -0.897000000
O    -0.797000000     6.347000000    -1.457000000
H    -0.064000000     5.974000000    -0.968000000
H    -1.562000000     5.860000000    -1.150000000
O    -2.550000000     8.038000000    -2.072000000
H    -1.854000000     7.395000000    -1.938000000
H    -2.598000000     8.144000000    -3.022000000
O     4.458000000     9.951000000     2.290000000
H     4.946000000     9.142000000     2.135000000
H     4.664000000    10.503000000     1.535000000
O    -3.314000000     4.411000000     3.571000000
H    -2.741000000     3.813000000     3.091000000
H    -2.755000000     4.781000000     4.254000000
O     1.518000000     6.781000000    -2.963000000
H     2.247000000     6.948000000    -2.366000000
H     0.758000000     6.675000000    -2.390000000
O     4.078000000     5.622000000     5.769000000
H     4.155000000     5.809000000     4.833000000
H     4.983000000     5.569000000     6.077000000
