215
-1445.06973
C     0.989000000    -0.388000000     5.540000000
H     1.963000000    -0.867000000     5.486000000
C    -0.156000000    -0.916000000     4.972000000
C    -1.436000000    -0.321000000     5.163000000
H    -2.279000000    -0.847000000     4.723000000
C    -0.067000000    -2.052000000     3.943000000
O     1.191000000    -2.696000000     4.065000000
H    -0.077000000    -1.712000000     2.896000000
O    -1.020000000    -3.019000000     4.148000000
C    -1.664000000    -3.311000000     2.999000000
C    -2.825000000    -2.666000000     2.534000000
H    -3.205000000    -1.828000000     3.112000000
C    -3.274000000    -2.959000000     1.222000000
O    -4.281000000    -2.182000000     0.749000000
C    -2.744000000    -4.053000000     0.489000000
C    -3.309000000    -4.530000000    -0.900000000
H    -3.053000000    -5.544000000    -1.213000000
C    -2.795000000    -3.637000000    -2.071000000
C    -1.588000000    -4.080000000    -2.658000000
H    -1.094000000    -5.002000000    -2.361000000
H    -4.394000000    -4.523000000    -1.023000000
C    -1.661000000    -4.707000000     1.036000000
H    -1.238000000    -5.561000000     0.514000000
C    -1.104000000    -4.346000000     2.273000000
C     0.216000000    -5.002000000     2.661000000
H     0.135000000    -5.984000000     2.192000000
H     0.392000000    -5.141000000     3.730000000
C     1.458000000    -4.232000000     2.188000000
C     2.141000000    -4.488000000     0.989000000
H     1.795000000    -5.267000000     0.315000000
C     1.888000000    -3.149000000     2.949000000
C     2.887000000    -2.320000000     2.508000000
H     3.130000000    -1.408000000     3.047000000
C     3.598000000    -2.537000000     1.360000000
O     4.499000000    -1.618000000     0.975000000
C     4.082000000    -0.756000000    -0.120000000
C     4.454000000     0.672000000     0.286000000
C     4.692000000     1.564000000    -0.748000000
H     4.714000000     1.316000000    -1.806000000
C     4.397000000     1.115000000     1.587000000
H     4.235000000     0.434000000     2.419000000
O     4.627000000    -1.243000000    -1.359000000
H     3.002000000    -0.671000000    -0.312000000
C     3.285000000    -3.731000000     0.639000000
C     4.073000000    -3.904000000    -0.701000000
H     4.144000000    -4.960000000    -0.970000000
H     5.132000000    -3.665000000    -0.582000000
C     3.363000000    -3.177000000    -1.883000000
C     2.244000000    -3.656000000    -2.577000000
H     1.744000000    -4.518000000    -2.144000000
C     3.737000000    -1.827000000    -2.214000000
C     3.150000000    -1.148000000    -3.278000000
H     3.548000000    -0.170000000    -3.538000000
C     2.009000000    -1.693000000    -3.894000000
O     1.370000000    -0.989000000    -4.867000000
C     0.075000000    -0.357000000    -4.499000000
C    -0.089000000     1.049000000    -5.064000000
C     0.961000000     1.949000000    -4.933000000
H     1.949000000     1.575000000    -4.677000000
C    -1.278000000     1.592000000    -5.522000000
H    -2.261000000     1.127000000    -5.536000000
O    -1.048000000    -1.165000000    -4.912000000
H     0.005000000    -0.192000000    -3.414000000
C     1.546000000    -2.957000000    -3.493000000
C     0.393000000    -3.698000000    -4.134000000
H     0.527000000    -4.768000000    -3.967000000
H     0.457000000    -3.501000000    -5.207000000
C    -0.967000000    -3.264000000    -3.586000000
C    -1.569000000    -2.042000000    -4.006000000
C    -2.748000000    -1.614000000    -3.397000000
H    -3.122000000    -0.642000000    -3.708000000
C    -3.393000000    -2.417000000    -2.415000000
O    -4.390000000    -1.767000000    -1.622000000
C    -3.943000000    -1.293000000    -0.329000000
H    -2.846000000    -1.243000000    -0.269000000
C    -4.364000000     0.168000000    -0.123000000
C    -4.969000000     0.591000000     1.014000000
H    -5.287000000    -0.141000000     1.753000000
C    -4.062000000     1.227000000    -1.040000000
H    -3.468000000     1.039000000    -1.930000000
C    -4.377000000     2.566000000    -0.767000000
O    -3.885000000     3.484000000    -1.671000000
C    -4.939000000     2.979000000     0.451000000
H    -5.243000000     4.017000000     0.553000000
C    -5.238000000     1.936000000     1.335000000
O    -5.770000000     2.200000000     2.535000000
C    -5.441000000     1.460000000     3.718000000
C    -4.285000000     1.856000000     4.400000000
H    -3.608000000     2.617000000     4.020000000
C    -6.233000000     0.483000000     4.277000000
H    -7.162000000     0.131000000     3.838000000
C    -5.941000000    -0.043000000     5.516000000
H    -6.622000000    -0.639000000     6.119000000
C    -4.708000000     0.257000000     6.135000000
H    -4.431000000    -0.101000000     7.124000000
C    -3.870000000     1.219000000     5.523000000
O    -2.681000000     1.619000000     6.196000000
C    -1.505000000     0.914000000     5.897000000
C    -0.369000000     1.441000000     6.416000000
H    -0.410000000     2.417000000     6.892000000
C     0.859000000     0.780000000     6.328000000
O     1.958000000     1.469000000     6.799000000
C     3.183000000     1.623000000     6.212000000
C     3.176000000     2.142000000     4.898000000
H     2.262000000     2.187000000     4.312000000
C     4.310000000     1.213000000     6.902000000
H     4.239000000     0.820000000     7.913000000
C     5.558000000     1.537000000     6.223000000
H     6.485000000     1.259000000     6.719000000
C     5.581000000     2.036000000     4.893000000
H     6.522000000     2.209000000     4.378000000
C     4.373000000     2.396000000     4.292000000
O     4.411000000     3.051000000     3.038000000
C     4.668000000     2.477000000     1.883000000
C     4.961000000     3.383000000     0.879000000
H     5.053000000     4.419000000     1.194000000
C     5.050000000     2.872000000    -0.433000000
O     5.189000000     3.746000000    -1.453000000
C     4.869000000     3.708000000    -2.797000000
C     3.555000000     3.846000000    -3.170000000
H     2.802000000     4.007000000    -2.403000000
C     5.904000000     3.594000000    -3.741000000
H     6.918000000     3.382000000    -3.412000000
C     5.544000000     3.565000000    -5.114000000
H     6.279000000     3.589000000    -5.915000000
C     4.216000000     3.677000000    -5.481000000
H     3.908000000     3.652000000    -6.523000000
C     3.224000000     3.758000000    -4.509000000
O     1.971000000     4.150000000    -4.937000000
C     0.923000000     3.292000000    -5.248000000
C    -0.276000000     3.775000000    -5.797000000
H    -0.386000000     4.813000000    -6.100000000
C    -1.356000000     2.918000000    -5.975000000
O    -2.553000000     3.497000000    -6.264000000
C    -3.533000000     3.601000000    -5.262000000
C    -4.882000000     3.384000000    -5.604000000
H    -5.214000000     3.304000000    -6.636000000
C    -5.881000000     3.406000000    -4.650000000
H    -6.939000000     3.417000000    -4.899000000
C    -5.513000000     3.358000000    -3.315000000
H    -6.300000000     3.248000000    -2.572000000
C    -4.225000000     3.598000000    -2.971000000
C    -3.191000000     3.796000000    -3.931000000
H    -2.145000000     3.923000000    -3.663000000
C    -0.477000000     1.713000000    -1.086000000
H    -0.996000000     2.093000000    -1.962000000
C    -0.695000000     0.404000000    -0.684000000
H    -1.396000000    -0.217000000    -1.237000000
C    -0.028000000    -0.060000000     0.465000000
H    -0.220000000    -1.077000000     0.838000000
C     0.685000000     0.801000000     1.246000000
H     1.124000000     0.557000000     2.211000000
C     0.899000000     2.050000000     0.819000000
H     1.593000000     2.719000000     1.321000000
C     0.310000000     2.619000000    -0.346000000
C     0.446000000     4.102000000    -0.723000000
O     1.139000000     4.742000000     0.014000000
O    -0.249000000     4.559000000    -1.654000000
O     3.803000000     8.744000000     1.040000000
H     4.689000000     8.527000000     1.333000000
H     3.492000000     7.948000000     0.609000000
O    -0.180000000     7.698000000     3.871000000
H    -0.117000000     8.301000000     3.129000000
H    -0.149000000     6.827000000     3.475000000
O     3.013000000     6.576000000    -0.301000000
H     2.318000000     6.053000000     0.096000000
H     3.242000000     6.103000000    -1.101000000
O     4.421000000     7.059000000    -3.806000000
H     5.083000000     7.215000000    -3.132000000
H     3.603000000     6.958000000    -3.318000000
O    -1.833000000     9.079000000    -0.787000000
H    -0.902000000     9.177000000    -0.989000000
H    -1.918000000     9.398000000     0.111000000
O     0.112000000     3.945000000     4.540000000
H     0.537000000     4.363000000     3.791000000
H    -0.665000000     3.525000000     4.171000000
O     1.223000000     5.385000000     2.543000000
H     1.010000000     5.066000000     1.666000000
H     2.136000000     5.666000000     2.482000000
O    -1.410000000     2.388000000     2.711000000
H    -1.541000000     1.506000000     3.061000000
H    -1.055000000     2.246000000     1.834000000
O     3.990000000     5.960000000     3.209000000
H     4.909000000     6.091000000     3.440000000
H     3.926000000     5.027000000     3.003000000
O    -0.171000000     8.113000000    -4.763000000
H     0.478000000     7.587000000    -5.232000000
H     0.345000000     8.782000000    -4.312000000
O     0.924000000     9.102000000    -0.964000000
H     1.307000000     8.245000000    -1.153000000
H     1.660000000     9.630000000    -0.654000000
O     6.072000000     7.045000000    -1.800000000
H     6.759000000     6.383000000    -1.727000000
H     5.440000000     6.811000000    -1.120000000
O     0.048000000     9.479000000     1.794000000
H     0.323000000     9.400000000     0.880000000
H    -0.540000000    10.234000000     1.802000000
O    -3.359000000     6.448000000     3.343000000
H    -2.758000000     5.839000000     2.914000000
H    -2.881000000     7.277000000     3.370000000
O    -5.094000000     6.366000000    -0.603000000
H    -4.310000000     5.827000000    -0.499000000
H    -4.908000000     6.915000000    -1.365000000
O    -2.244000000     6.035000000    -0.772000000
H    -1.490000000     5.643000000    -1.211000000
H    -1.995000000     6.949000000    -0.637000000
O     1.658000000     6.821000000    -6.351000000
H     1.749000000     5.907000000    -6.081000000
H     2.520000000     7.056000000    -6.696000000
O    -1.681000000     5.122000000     1.904000000
H    -1.501000000     4.235000000     2.214000000
H    -1.748000000     5.035000000     0.953000000
O     1.571000000     6.242000000    -2.756000000
H     1.128000000     6.542000000    -3.550000000
H     1.032000000     5.516000000    -2.442000000
