215
-1466.78759
C     1.229000000     0.246000000     4.404000000
H     1.918000000     0.050000000     3.586000000
C     0.249000000    -0.743000000     4.647000000
C    -0.691000000    -0.565000000     5.635000000
H    -1.467000000    -1.309000000     5.797000000
C     0.242000000    -2.025000000     3.743000000
O     1.533000000    -2.661000000     3.742000000
H     0.081000000    -1.535000000     2.771000000
O    -0.804000000    -2.940000000     4.081000000
C    -1.458000000    -3.459000000     3.002000000
C    -2.703000000    -2.905000000     2.768000000
H    -3.082000000    -2.190000000     3.494000000
C    -3.251000000    -3.169000000     1.529000000
O    -4.270000000    -2.304000000     1.107000000
C    -2.694000000    -4.044000000     0.617000000
C    -3.340000000    -4.269000000    -0.747000000
H    -3.178000000    -5.274000000    -1.143000000
C    -2.849000000    -3.282000000    -1.851000000
C    -1.800000000    -3.711000000    -2.715000000
H    -1.197000000    -4.602000000    -2.554000000
H    -4.422000000    -4.133000000    -0.680000000
C    -1.530000000    -4.710000000     0.950000000
H    -1.126000000    -5.421000000     0.234000000
C    -0.940000000    -4.423000000     2.180000000
C     0.468000000    -5.056000000     2.474000000
H     0.540000000    -6.068000000     2.073000000
H     0.462000000    -5.151000000     3.562000000
C     1.526000000    -4.192000000     1.826000000
C     2.062000000    -4.562000000     0.620000000
H     1.589000000    -5.397000000     0.109000000
C     2.005000000    -3.081000000     2.498000000
C     3.046000000    -2.349000000     1.942000000
H     3.413000000    -1.545000000     2.574000000
C     3.579000000    -2.626000000     0.708000000
O     4.596000000    -1.833000000     0.131000000
C     4.244000000    -0.857000000    -0.817000000
C     4.860000000     0.541000000    -0.433000000
C     5.030000000     1.476000000    -1.377000000
H     4.689000000     1.224000000    -2.378000000
C     5.323000000     0.853000000     0.863000000
H     5.262000000     0.092000000     1.636000000
O     4.520000000    -1.505000000    -2.115000000
H     3.165000000    -0.644000000    -0.812000000
C     3.061000000    -3.797000000     0.061000000
C     3.556000000    -4.104000000    -1.396000000
H     3.351000000    -5.165000000    -1.551000000
H     4.640000000    -4.000000000    -1.478000000
C     2.920000000    -3.188000000    -2.491000000
C     1.801000000    -3.632000000    -3.162000000
H     1.433000000    -4.591000000    -2.806000000
C     3.450000000    -1.949000000    -2.823000000
C     2.723000000    -1.076000000    -3.634000000
H     3.000000000    -0.027000000    -3.701000000
C     1.566000000    -1.507000000    -4.305000000
O     0.842000000    -0.524000000    -4.984000000
C    -0.322000000     0.084000000    -4.317000000
C    -0.337000000     1.586000000    -4.526000000
C     0.795000000     2.325000000    -4.801000000
H     1.756000000     1.848000000    -4.978000000
C    -1.620000000     2.165000000    -4.437000000
H    -2.534000000     1.595000000    -4.297000000
O    -1.511000000    -0.657000000    -4.782000000
H    -0.003000000     0.014000000    -3.266000000
C     1.079000000    -2.810000000    -4.088000000
C    -0.174000000    -3.357000000    -4.613000000
H    -0.126000000    -4.447000000    -4.570000000
H    -0.180000000    -3.123000000    -5.680000000
C    -1.363000000    -2.935000000    -3.780000000
C    -1.959000000    -1.685000000    -3.913000000
C    -2.968000000    -1.229000000    -3.085000000
H    -3.377000000    -0.247000000    -3.305000000
C    -3.420000000    -2.041000000    -2.052000000
O    -4.368000000    -1.549000000    -1.095000000
C    -4.006000000    -1.192000000     0.239000000
H    -2.928000000    -0.976000000     0.217000000
C    -4.755000000     0.081000000     0.611000000
C    -4.834000000     0.460000000     1.931000000
H    -4.497000000    -0.248000000     2.685000000
C    -5.091000000     1.022000000    -0.338000000
H    -4.959000000     0.833000000    -1.401000000
C    -5.593000000     2.295000000    -0.024000000
O    -5.918000000     3.176000000    -0.939000000
C    -5.601000000     2.702000000     1.310000000
H    -5.927000000     3.699000000     1.592000000
C    -5.216000000     1.775000000     2.300000000
O    -5.088000000     2.238000000     3.597000000
C    -4.770000000     1.581000000     4.781000000
C    -3.440000000     1.566000000     5.221000000
H    -2.798000000     2.200000000     4.616000000
C    -5.771000000     1.150000000     5.620000000
H    -6.761000000     1.298000000     5.196000000
C    -5.506000000     0.714000000     6.917000000
H    -6.211000000     0.348000000     7.660000000
C    -4.181000000     0.597000000     7.361000000
H    -3.960000000     0.376000000     8.402000000
C    -3.155000000     0.977000000     6.464000000
O    -1.873000000     0.874000000     6.977000000
C    -0.733000000     0.643000000     6.258000000
C     0.170000000     1.667000000     6.016000000
H     0.099000000     2.676000000     6.415000000
C     1.194000000     1.416000000     5.139000000
O     2.107000000     2.408000000     4.900000000
C     3.499000000     2.114000000     4.858000000
C     4.229000000     2.364000000     3.683000000
H     3.731000000     2.870000000     2.860000000
C     4.104000000     1.454000000     5.939000000
H     3.602000000     1.312000000     6.893000000
C     5.488000000     1.125000000     5.896000000
H     5.845000000     0.580000000     6.766000000
C     6.210000000     1.471000000     4.736000000
H     7.234000000     1.118000000     4.643000000
C     5.574000000     2.063000000     3.626000000
O     6.277000000     2.405000000     2.485000000
C     5.816000000     2.075000000     1.204000000
C     5.804000000     3.110000000     0.198000000
H     6.165000000     4.103000000     0.452000000
C     5.408000000     2.782000000    -1.092000000
O     5.494000000     3.736000000    -2.104000000
C     4.880000000     3.694000000    -3.401000000
C     3.559000000     4.053000000    -3.586000000
H     2.992000000     4.348000000    -2.706000000
C     5.610000000     3.043000000    -4.401000000
H     6.614000000     2.670000000    -4.213000000
C     5.075000000     2.889000000    -5.672000000
H     5.609000000     2.377000000    -6.468000000
C     3.812000000     3.451000000    -5.943000000
H     3.456000000     3.420000000    -6.970000000
C     3.114000000     4.039000000    -4.857000000
O     1.862000000     4.565000000    -5.021000000
C     0.756000000     3.728000000    -4.831000000
C    -0.511000000     4.348000000    -4.846000000
H    -0.599000000     5.426000000    -4.952000000
C    -1.621000000     3.556000000    -4.558000000
O    -2.869000000     4.157000000    -4.566000000
C    -4.030000000     3.575000000    -4.129000000
C    -4.776000000     2.732000000    -4.985000000
H    -4.524000000     2.611000000    -6.035000000
C    -5.904000000     2.105000000    -4.465000000
H    -6.414000000     1.373000000    -5.086000000
C    -6.281000000     2.220000000    -3.104000000
H    -7.151000000     1.672000000    -2.751000000
C    -5.553000000     3.048000000    -2.203000000
C    -4.392000000     3.696000000    -2.757000000
H    -3.778000000     4.240000000    -2.044000000
C    -0.883000000     2.581000000    -0.938000000
H    -1.509000000     3.417000000    -1.241000000
C    -1.303000000     1.305000000    -1.049000000
H    -2.277000000     1.091000000    -1.483000000
C    -0.495000000     0.283000000    -0.597000000
H    -0.909000000    -0.755000000    -0.639000000
C     0.793000000     0.526000000    -0.072000000
H     1.441000000    -0.266000000     0.295000000
C     1.263000000     1.840000000    -0.018000000
H     2.262000000     2.047000000     0.357000000
C     0.421000000     2.879000000    -0.508000000
C     0.894000000     4.315000000    -0.358000000
O     1.891000000     4.461000000     0.370000000
O     0.418000000     5.230000000    -0.988000000
O    -3.088000000     7.626000000     2.478000000
H    -2.306000000     7.106000000     2.659000000
H    -2.895000000     8.072000000     1.653000000
O     3.731000000     6.223000000    -0.619000000
H     3.050000000     5.634000000    -0.294000000
H     3.562000000     6.289000000    -1.559000000
O    -0.630000000     7.503000000     5.134000000
H    -1.554000000     7.685000000     5.306000000
H    -0.633000000     6.996000000     4.322000000
O     3.480000000     9.119000000    -3.494000000
H     2.851000000     8.616000000    -2.977000000
H     3.385000000    10.017000000    -3.178000000
O    -2.878000000     9.106000000     0.124000000
H    -2.458000000     8.996000000    -0.729000000
H    -3.013000000    10.050000000     0.204000000
O    -0.720000000     6.075000000     2.872000000
H    -1.344000000     5.361000000     2.742000000
H     0.125000000     5.703000000     2.620000000
O     2.053000000     5.312000000     2.765000000
H     1.948000000     5.070000000     1.845000000
H     2.962000000     5.091000000     2.969000000
O    -1.738000000     1.449000000     2.117000000
H    -1.560000000     0.595000000     2.510000000
H    -1.434000000     1.364000000     1.213000000
O     4.625000000     6.351000000     3.518000000
H     4.698000000     7.274000000     3.761000000
H     4.901000000     5.875000000     4.302000000
O     0.431000000     7.651000000     0.280000000
H     0.543000000     6.738000000     0.013000000
H     0.728000000     7.672000000     1.190000000
O     1.756000000     7.938000000     2.543000000
H     2.059000000     7.035000000     2.642000000
H     2.522000000     8.472000000     2.755000000
O     5.251000000     7.512000000     1.041000000
H     5.268000000     7.076000000     1.893000000
H     4.760000000     6.916000000     0.476000000
O     0.848000000    10.151000000    -0.576000000
H     0.555000000     9.745000000     0.240000000
H     1.754000000     9.858000000    -0.677000000
O     3.856000000     9.923000000    -0.102000000
H     4.233000000     9.183000000     0.373000000
H     4.611000000    10.378000000    -0.475000000
O    -1.914000000     6.477000000    -2.196000000
H    -1.190000000     5.856000000    -2.115000000
H    -1.940000000     6.926000000    -1.351000000
O     0.437000000     8.003000000    -4.859000000
H    -0.501000000     8.073000000    -4.683000000
H     0.815000000     7.707000000    -4.031000000
O    -2.362000000     4.114000000     2.532000000
H    -1.942000000     3.262000000     2.647000000
H    -3.299000000     3.921000000     2.521000000
O    -2.367000000     7.566000000    -4.551000000
H    -2.326000000     7.121000000    -3.704000000
H    -2.774000000     6.928000000    -5.137000000
O     1.561000000     7.534000000    -2.219000000
H     1.135000000     8.097000000    -1.573000000
H     1.236000000     6.655000000    -2.024000000
