215
-1474.50239
C     0.553000000     0.031000000     4.471000000
H     1.486000000    -0.095000000     3.927000000
C    -0.471000000    -0.869000000     4.468000000
C    -1.707000000    -0.663000000     5.189000000
H    -2.470000000    -1.437000000     5.226000000
C    -0.321000000    -2.035000000     3.507000000
O     0.950000000    -2.667000000     3.662000000
H    -0.409000000    -1.577000000     2.510000000
O    -1.365000000    -3.059000000     3.727000000
C    -1.864000000    -3.654000000     2.636000000
C    -3.075000000    -3.183000000     2.132000000
H    -3.700000000    -2.466000000     2.658000000
C    -3.497000000    -3.445000000     0.812000000
O    -4.511000000    -2.621000000     0.327000000
C    -2.815000000    -4.296000000    -0.030000000
C    -3.201000000    -4.448000000    -1.477000000
H    -2.876000000    -5.427000000    -1.834000000
C    -2.628000000    -3.378000000    -2.387000000
C    -1.442000000    -3.591000000    -3.107000000
H    -1.002000000    -4.583000000    -3.029000000
H    -4.290000000    -4.465000000    -1.549000000
C    -1.642000000    -4.845000000     0.524000000
H    -1.100000000    -5.544000000    -0.108000000
C    -1.093000000    -4.513000000     1.810000000
C     0.269000000    -5.050000000     2.288000000
H     0.403000000    -5.990000000     1.748000000
H     0.276000000    -5.211000000     3.368000000
C     1.409000000    -4.052000000     1.782000000
C     2.138000000    -4.316000000     0.661000000
H     1.889000000    -5.112000000    -0.037000000
C     1.726000000    -2.994000000     2.570000000
C     2.886000000    -2.174000000     2.417000000
H     3.095000000    -1.343000000     3.086000000
C     3.598000000    -2.379000000     1.226000000
O     4.585000000    -1.481000000     0.919000000
C     4.304000000    -0.542000000    -0.143000000
C     4.868000000     0.864000000     0.142000000
C     5.276000000     1.734000000    -0.905000000
H     5.238000000     1.509000000    -1.968000000
C     5.073000000     1.216000000     1.462000000
H     4.849000000     0.489000000     2.238000000
O     4.678000000    -1.008000000    -1.469000000
H     3.219000000    -0.403000000    -0.267000000
C     3.256000000    -3.492000000     0.346000000
C     4.007000000    -3.794000000    -0.979000000
H     3.926000000    -4.859000000    -1.204000000
H     5.014000000    -3.403000000    -0.817000000
C     3.323000000    -2.854000000    -1.970000000
C     2.223000000    -3.338000000    -2.772000000
H     1.838000000    -4.326000000    -2.532000000
C     3.686000000    -1.532000000    -2.211000000
C     3.177000000    -0.799000000    -3.259000000
H     3.497000000     0.226000000    -3.429000000
C     2.168000000    -1.271000000    -4.093000000
O     1.544000000    -0.362000000    -4.905000000
C     0.295000000     0.201000000    -4.363000000
C     0.262000000     1.661000000    -4.651000000
C     1.405000000     2.461000000    -4.611000000
H     2.394000000     2.064000000    -4.397000000
C    -0.959000000     2.311000000    -4.574000000
H    -1.884000000     1.744000000    -4.523000000
O    -0.828000000    -0.451000000    -4.839000000
H     0.314000000     0.095000000    -3.268000000
C     1.690000000    -2.536000000    -3.806000000
C     0.503000000    -3.023000000    -4.643000000
H     0.696000000    -4.094000000    -4.733000000
H     0.554000000    -2.633000000    -5.661000000
C    -0.795000000    -2.653000000    -3.943000000
C    -1.429000000    -1.382000000    -4.087000000
C    -2.673000000    -1.144000000    -3.416000000
H    -3.130000000    -0.163000000    -3.519000000
C    -3.248000000    -2.117000000    -2.540000000
O    -4.319000000    -1.733000000    -1.723000000
C    -4.037000000    -1.482000000    -0.358000000
H    -2.961000000    -1.317000000    -0.202000000
C    -4.590000000    -0.151000000     0.192000000
C    -5.058000000    -0.036000000     1.519000000
H    -5.133000000    -0.885000000     2.194000000
C    -4.619000000     1.027000000    -0.574000000
H    -4.232000000     0.967000000    -1.587000000
C    -5.083000000     2.262000000    -0.084000000
O    -5.312000000     3.294000000    -0.972000000
C    -5.713000000     2.283000000     1.187000000
H    -6.280000000     3.136000000     1.552000000
C    -5.642000000     1.125000000     1.966000000
O    -6.339000000     1.230000000     3.136000000
C    -5.879000000     0.680000000     4.318000000
C    -4.546000000     1.004000000     4.812000000
H    -3.934000000     1.663000000     4.201000000
C    -6.748000000    -0.097000000     5.064000000
H    -7.752000000    -0.189000000     4.657000000
C    -6.330000000    -0.578000000     6.325000000
H    -7.056000000    -1.096000000     6.947000000
C    -5.047000000    -0.359000000     6.804000000
H    -4.794000000    -0.749000000     7.786000000
C    -4.172000000     0.465000000     6.061000000
O    -3.012000000     0.839000000     6.662000000
C    -1.830000000     0.503000000     5.926000000
C    -0.755000000     1.396000000     6.003000000
H    -0.798000000     2.310000000     6.589000000
C     0.385000000     1.198000000     5.220000000
O     1.389000000     2.136000000     5.159000000
C     2.773000000     1.880000000     5.043000000
C     3.567000000     2.495000000     4.076000000
H     3.124000000     3.224000000     3.402000000
C     3.365000000     0.955000000     5.938000000
H     2.874000000     0.460000000     6.771000000
C     4.739000000     0.736000000     5.929000000
H     5.119000000     0.083000000     6.710000000
C     5.552000000     1.381000000     4.958000000
H     6.626000000     1.238000000     4.870000000
C     4.946000000     2.268000000     4.071000000
O     5.734000000     2.881000000     3.085000000
C     5.628000000     2.507000000     1.788000000
C     5.906000000     3.401000000     0.774000000
H     6.272000000     4.390000000     1.036000000
C     5.748000000     2.998000000    -0.594000000
O     6.033000000     3.916000000    -1.534000000
C     5.556000000     3.841000000    -2.873000000
C     4.253000000     4.227000000    -3.134000000
H     3.560000000     4.524000000    -2.351000000
C     6.419000000     3.351000000    -3.905000000
H     7.368000000     2.895000000    -3.633000000
C     5.822000000     3.227000000    -5.190000000
H     6.397000000     2.873000000    -6.042000000
C     4.550000000     3.766000000    -5.449000000
H     4.175000000     3.627000000    -6.459000000
C     3.724000000     4.195000000    -4.386000000
O     2.416000000     4.639000000    -4.605000000
C     1.332000000     3.841000000    -4.714000000
C     0.142000000     4.477000000    -4.679000000
H     0.028000000     5.558000000    -4.668000000
C    -1.056000000     3.711000000    -4.630000000
O    -2.276000000     4.332000000    -4.477000000
C    -3.443000000     3.734000000    -4.046000000
C    -4.368000000     3.278000000    -4.963000000
H    -4.057000000     3.251000000    -6.004000000
C    -5.583000000     2.843000000    -4.501000000
H    -6.343000000     2.490000000    -5.193000000
C    -5.896000000     2.721000000    -3.162000000
H    -6.920000000     2.476000000    -2.889000000
C    -4.987000000     3.185000000    -2.268000000
C    -3.729000000     3.737000000    -2.659000000
H    -3.006000000     4.149000000    -1.959000000
C    -1.089000000     2.168000000    -0.747000000
H    -1.699000000     2.669000000    -1.495000000
C    -1.140000000     0.794000000    -0.775000000
H    -1.617000000     0.304000000    -1.620000000
C    -0.548000000     0.046000000     0.253000000
H    -0.535000000    -1.049000000     0.184000000
C     0.258000000     0.632000000     1.208000000
H     0.936000000     0.041000000     1.819000000
C     0.221000000     1.999000000     1.294000000
H     0.680000000     2.495000000     2.145000000
C    -0.384000000     2.833000000     0.341000000
C    -0.436000000     4.299000000     0.506000000
O     0.307000000     4.814000000     1.357000000
O    -1.333000000     4.965000000    -0.008000000
O     1.098000000     7.639000000     3.127000000
H     1.783000000     6.999000000     3.321000000
H     0.407000000     7.128000000     2.704000000
O    -2.515000000     8.404000000     4.616000000
H    -2.025000000     9.118000000     4.209000000
H    -2.440000000     7.679000000     3.996000000
O     2.464000000     6.058000000     0.612000000
H     1.609000000     5.743000000     0.907000000
H     3.069000000     5.795000000     1.306000000
O    -2.544000000     4.408000000     4.210000000
H    -1.622000000     4.502000000     4.448000000
H    -2.629000000     3.495000000     3.936000000
O     0.248000000     4.626000000     4.146000000
H     0.249000000     4.489000000     3.198000000
H     1.152000000     4.861000000     4.355000000
O    -2.268000000     2.078000000     2.562000000
H    -2.378000000     2.276000000     1.632000000
H    -1.334000000     1.894000000     2.660000000
O     2.989000000     5.652000000     4.354000000
H     3.776000000     6.061000000     3.996000000
H     3.276000000     5.266000000     5.182000000
O     2.202000000     7.361000000    -1.822000000
H     1.285000000     7.120000000    -1.959000000
H     2.445000000     6.923000000    -1.007000000
O    -4.978000000     7.484000000     2.802000000
H    -4.952000000     6.967000000     1.997000000
H    -4.324000000     8.170000000     2.667000000
O    -5.298000000     8.694000000    -0.679000000
H    -4.957000000     7.817000000    -0.855000000
H    -4.626000000     9.285000000    -1.019000000
O    -3.203000000     9.529000000     1.669000000
H    -2.506000000     9.339000000     1.042000000
H    -3.821000000    10.075000000     1.182000000
O    -4.811000000     5.696000000     4.655000000
H    -4.922000000     6.218000000     3.861000000
H    -3.928000000     5.334000000     4.583000000
O    -5.506000000     6.519000000    -3.280000000
H    -5.050000000     5.715000000    -3.031000000
H    -4.915000000     6.948000000    -3.899000000
O    -3.465000000     6.608000000    -0.006000000
H    -3.059000000     6.941000000     0.795000000
H    -2.924000000     5.858000000    -0.254000000
O     2.408000000    10.252000000     2.181000000
H     2.964000000    10.418000000     2.941000000
H     2.037000000     9.384000000     2.340000000
O    -1.069000000     8.634000000     0.220000000
H    -1.043000000     7.882000000    -0.372000000
H    -0.220000000     9.059000000     0.105000000
O     1.012000000     9.747000000    -1.357000000
H     1.550000000    10.381000000    -0.882000000
H     1.608000000     9.024000000    -1.549000000
O    -1.879000000     6.562000000     2.522000000
H    -2.018000000     5.793000000     3.076000000
H    -1.461000000     6.217000000     1.734000000
O    -0.578000000     6.746000000    -1.747000000
H    -1.163000000     6.524000000    -2.471000000
H    -0.658000000     6.012000000    -1.139000000
