215
-1447.41052
C     4.575000000     0.238000000    -3.095000000
H     4.623000000    -0.816000000    -3.358000000
C     4.300000000     0.577000000    -1.742000000
C     4.347000000     1.925000000    -1.418000000
H     4.199000000     2.196000000    -0.375000000
C     3.943000000    -0.524000000    -0.714000000
O     4.502000000    -1.803000000    -1.087000000
H     2.867000000    -0.706000000    -0.574000000
O     4.552000000    -0.131000000     0.493000000
C     3.892000000    -0.388000000     1.675000000
C     3.299000000     0.660000000     2.370000000
H     3.427000000     1.697000000     2.071000000
C     2.559000000     0.440000000     3.499000000
O     2.037000000     1.615000000     4.083000000
C     2.332000000    -0.809000000     4.016000000
C     1.424000000    -1.007000000     5.266000000
H     1.724000000    -1.925000000     5.776000000
C    -0.021000000    -1.029000000     4.877000000
C    -0.494000000    -2.268000000     4.377000000
H     0.200000000    -3.097000000     4.263000000
H     1.566000000    -0.236000000     6.026000000
C     2.972000000    -1.818000000     3.364000000
H     2.864000000    -2.790000000     3.840000000
C     3.745000000    -1.662000000     2.229000000
C     4.354000000    -2.965000000     1.610000000
H     4.392000000    -3.752000000     2.366000000
H     5.363000000    -2.885000000     1.199000000
C     3.484000000    -3.438000000     0.463000000
C     2.432000000    -4.357000000     0.664000000
H     2.307000000    -4.856000000     1.622000000
C     3.699000000    -2.919000000    -0.808000000
C     3.008000000    -3.379000000    -1.908000000
H     3.213000000    -2.937000000    -2.880000000
C     1.948000000    -4.239000000    -1.666000000
O     0.912000000    -4.411000000    -2.646000000
C    -0.357000000    -3.699000000    -2.453000000
C    -0.735000000    -2.936000000    -3.738000000
C    -2.090000000    -2.848000000    -4.151000000
H    -2.931000000    -3.336000000    -3.665000000
C     0.293000000    -2.272000000    -4.473000000
H     1.304000000    -2.403000000    -4.097000000
O    -1.394000000    -4.621000000    -2.057000000
H    -0.164000000    -3.041000000    -1.594000000
C     1.659000000    -4.815000000    -0.430000000
C     0.469000000    -5.731000000    -0.211000000
H     0.714000000    -6.429000000     0.593000000
H     0.224000000    -6.384000000    -1.050000000
C    -0.828000000    -5.033000000     0.270000000
C    -1.126000000    -4.797000000     1.611000000
H    -0.282000000    -4.980000000     2.270000000
C    -1.735000000    -4.583000000    -0.689000000
C    -2.829000000    -3.841000000    -0.264000000
H    -3.454000000    -3.448000000    -1.062000000
C    -3.144000000    -3.531000000     1.050000000
O    -4.137000000    -2.587000000     1.315000000
C    -3.757000000    -1.263000000     1.750000000
C    -4.512000000    -0.168000000     1.165000000
C    -4.697000000    -0.101000000    -0.201000000
H    -4.372000000    -0.943000000    -0.806000000
C    -4.996000000     0.863000000     1.975000000
H    -5.093000000     0.872000000     3.058000000
O    -3.736000000    -1.224000000     3.188000000
H    -2.717000000    -1.068000000     1.447000000
C    -2.266000000    -4.063000000     2.018000000
C    -2.406000000    -3.759000000     3.505000000
H    -2.064000000    -4.553000000     4.173000000
H    -3.463000000    -3.768000000     3.779000000
C    -1.784000000    -2.421000000     3.897000000
C    -2.493000000    -1.224000000     3.802000000
C    -2.003000000     0.016000000     4.141000000
H    -2.667000000     0.850000000     3.931000000
C    -0.780000000     0.140000000     4.726000000
O    -0.098000000     1.357000000     4.886000000
C     0.662000000     1.907000000     3.821000000
H     0.509000000     1.372000000     2.872000000
C     0.479000000     3.368000000     3.464000000
C     1.454000000     4.004000000     2.662000000
H     2.457000000     3.596000000     2.576000000
C    -0.783000000     3.988000000     3.649000000
H    -1.635000000     3.535000000     4.148000000
C    -1.010000000     5.231000000     3.141000000
O    -2.213000000     5.917000000     3.150000000
C    -0.062000000     5.882000000     2.387000000
H    -0.259000000     6.862000000     1.961000000
C     1.234000000     5.351000000     2.276000000
O     2.186000000     6.012000000     1.524000000
C     3.369000000     5.527000000     1.115000000
C     3.442000000     5.288000000    -0.241000000
H     2.499000000     5.457000000    -0.753000000
C     4.453000000     5.312000000     2.009000000
H     4.456000000     5.324000000     3.096000000
C     5.573000000     4.706000000     1.520000000
H     6.395000000     4.367000000     2.145000000
C     5.688000000     4.521000000     0.092000000
H     6.622000000     4.140000000    -0.313000000
C     4.655000000     4.738000000    -0.757000000
O     4.756000000     4.217000000    -1.993000000
C     4.760000000     2.904000000    -2.337000000
C     5.086000000     2.616000000    -3.645000000
H     5.380000000     3.450000000    -4.278000000
C     4.978000000     1.264000000    -4.007000000
O     5.121000000     0.954000000    -5.388000000
C     4.485000000    -0.043000000    -6.054000000
C     3.055000000    -0.024000000    -5.975000000
H     2.615000000     0.813000000    -5.439000000
C     5.158000000    -1.166000000    -6.548000000
H     6.237000000    -1.160000000    -6.416000000
C     4.307000000    -2.208000000    -6.962000000
H     4.678000000    -3.135000000    -7.393000000
C     2.907000000    -2.216000000    -6.876000000
H     2.361000000    -3.029000000    -7.346000000
C     2.268000000    -1.068000000    -6.435000000
O     0.896000000    -0.876000000    -6.422000000
C    -0.037000000    -1.573000000    -5.649000000
C    -1.347000000    -1.237000000    -5.821000000
H    -1.668000000    -0.628000000    -6.663000000
C    -2.408000000    -1.861000000    -5.104000000
O    -3.707000000    -1.612000000    -5.414000000
C    -4.619000000    -1.364000000    -4.440000000
C    -4.464000000    -0.210000000    -3.707000000
H    -3.575000000     0.400000000    -3.847000000
C    -5.822000000    -2.084000000    -4.387000000
H    -5.954000000    -2.950000000    -5.032000000
C    -6.769000000    -1.658000000    -3.483000000
H    -7.771000000    -2.078000000    -3.516000000
C    -6.594000000    -0.517000000    -2.676000000
H    -7.428000000    -0.016000000    -2.191000000
C    -5.478000000     0.222000000    -2.876000000
O    -5.347000000     1.343000000    -2.172000000
C    -5.132000000     1.128000000    -0.777000000
C    -5.544000000     2.209000000     0.012000000
H    -6.084000000     3.019000000    -0.470000000
C    -5.485000000     2.054000000     1.405000000
O    -6.032000000     3.056000000     2.273000000
C    -5.320000000     3.820000000     3.160000000
C    -5.947000000     4.400000000     4.316000000
H    -6.982000000     4.211000000     4.590000000
C    -5.297000000     5.458000000     5.017000000
H    -5.818000000     5.957000000     5.830000000
C    -4.052000000     5.928000000     4.646000000
H    -3.643000000     6.793000000     5.162000000
C    -3.425000000     5.384000000     3.527000000
C    -4.015000000     4.327000000     2.823000000
H    -3.511000000     3.946000000     1.939000000
C    -0.490000000     0.375000000    -1.548000000
H    -0.255000000    -0.121000000    -2.487000000
C    -0.130000000    -0.335000000    -0.421000000
H     0.355000000    -1.303000000    -0.515000000
C    -0.477000000     0.177000000     0.836000000
H    -0.352000000    -0.310000000     1.757000000
C    -1.312000000     1.321000000     0.921000000
H    -1.565000000     1.812000000     1.856000000
C    -1.710000000     1.997000000    -0.237000000
H    -2.404000000     2.828000000    -0.132000000
C    -1.324000000     1.494000000    -1.510000000
C    -1.833000000     2.228000000    -2.763000000
O    -2.630000000     3.116000000    -2.581000000
O    -1.196000000     2.123000000    -3.757000000
O    -2.312000000     7.573000000    -2.453000000
H    -2.009000000     6.756000000    -2.057000000
H    -1.652000000     8.219000000    -2.203000000
O    -2.453000000     5.948000000    -8.368000000
H    -2.463000000     5.806000000    -7.421000000
H    -3.278000000     5.571000000    -8.675000000
O    -4.712000000     3.279000000    -4.111000000
H    -3.871000000     3.200000000    -3.660000000
H    -5.308000000     2.727000000    -3.606000000
O    -8.142000000     2.821000000    -1.834000000
H    -8.512000000     3.072000000    -2.681000000
H    -7.697000000     3.609000000    -1.523000000
O    -6.895000000     1.361000000    -6.248000000
H    -6.851000000     2.104000000    -5.645000000
H    -7.502000000     0.750000000    -5.831000000
O     0.221000000     5.151000000    -6.178000000
H     0.200000000     6.104000000    -6.265000000
H    -0.533000000     4.944000000    -5.626000000
O    -2.101000000     4.483000000    -5.131000000
H    -2.743000000     5.124000000    -4.825000000
H    -2.073000000     3.822000000    -4.440000000
O    -1.888000000     1.918000000    -6.441000000
H    -1.907000000     1.562000000    -5.552000000
H    -1.933000000     2.866000000    -6.321000000
O    -5.298000000     4.234000000    -6.428000000
H    -4.936000000     3.889000000    -5.611000000
H    -5.366000000     3.470000000    -7.001000000
O    -4.505000000     4.951000000    -1.714000000
H    -4.082000000     4.135000000    -1.979000000
H    -3.788000000     5.499000000    -1.393000000
O     1.016000000     3.485000000    -1.302000000
H     0.464000000     2.819000000    -0.892000000
H     1.393000000     3.047000000    -2.065000000
O     0.806000000     6.779000000    -3.457000000
H     1.023000000     7.443000000    -2.803000000
H     0.143000000     6.234000000    -3.035000000
O    -0.990000000     5.021000000    -2.121000000
H    -0.307000000     4.546000000    -1.648000000
H    -1.613000000     4.343000000    -2.386000000
O    -3.175000000     0.841000000    -8.849000000
H    -2.553000000     1.195000000    -8.213000000
H    -4.024000000     1.185000000    -8.572000000
O    -3.631000000     6.775000000    -4.791000000
H    -3.156000000     6.824000000    -3.961000000
H    -3.744000000     7.688000000    -5.056000000
O    -5.923000000     7.307000000    -2.655000000
H    -5.448000000     6.506000000    -2.434000000
H    -5.336000000     8.015000000    -2.388000000
O    -2.948000000     6.502000000     0.421000000
H    -2.307000000     6.765000000     1.082000000
H    -3.340000000     5.702000000     0.773000000
O     1.447000000     2.452000000    -3.881000000
H     0.537000000     2.157000000    -3.927000000
H     1.482000000     3.210000000    -4.464000000
O     0.915000000     2.369000000    -6.755000000
H     0.249000000     1.686000000    -6.678000000
H     0.554000000     3.112000000    -6.272000000
