215
-1430.76022
C     1.462000000     0.165000000     5.153000000
H     2.482000000    -0.021000000     4.825000000
C     0.417000000    -0.717000000     4.932000000
C    -0.867000000    -0.356000000     5.323000000
H    -1.781000000    -0.842000000     4.994000000
C     0.665000000    -1.817000000     3.898000000
O     1.997000000    -2.349000000     3.990000000
H     0.541000000    -1.416000000     2.881000000
O    -0.326000000    -2.916000000     4.130000000
C    -0.867000000    -3.468000000     3.036000000
C    -2.064000000    -2.937000000     2.515000000
H    -2.448000000    -2.023000000     2.962000000
C    -2.669000000    -3.478000000     1.408000000
O    -3.809000000    -2.871000000     0.970000000
C    -1.977000000    -4.388000000     0.662000000
C    -2.601000000    -4.917000000    -0.600000000
H    -2.196000000    -5.922000000    -0.738000000
C    -2.311000000    -4.058000000    -1.805000000
C    -1.246000000    -4.300000000    -2.640000000
H    -0.521000000    -5.090000000    -2.459000000
H    -3.670000000    -5.004000000    -0.394000000
C    -0.720000000    -4.863000000     1.102000000
H    -0.205000000    -5.625000000     0.523000000
C    -0.162000000    -4.415000000     2.293000000
C     1.278000000    -4.756000000     2.726000000
H     1.597000000    -5.770000000     2.478000000
H     1.272000000    -4.866000000     3.812000000
C     2.237000000    -3.799000000     2.124000000
C     2.753000000    -4.018000000     0.860000000
H     2.546000000    -4.952000000     0.343000000
C     2.609000000    -2.718000000     2.843000000
C     3.493000000    -1.815000000     2.246000000
H     3.666000000    -0.889000000     2.788000000
C     4.004000000    -2.039000000     0.982000000
O     4.756000000    -1.016000000     0.514000000
C     4.168000000    -0.205000000    -0.575000000
C     4.478000000     1.237000000    -0.349000000
C     4.790000000     2.036000000    -1.408000000
H     4.736000000     1.556000000    -2.382000000
C     4.400000000     1.839000000     0.905000000
H     4.058000000     1.237000000     1.743000000
O     4.612000000    -0.643000000    -1.917000000
H     3.070000000    -0.266000000    -0.561000000
C     3.716000000    -3.179000000     0.268000000
C     4.226000000    -3.392000000    -1.136000000
H     4.137000000    -4.453000000    -1.378000000
H     5.293000000    -3.168000000    -1.083000000
C     3.409000000    -2.639000000    -2.169000000
C     2.338000000    -3.348000000    -2.824000000
H     2.070000000    -4.351000000    -2.503000000
C     3.683000000    -1.304000000    -2.626000000
C     2.725000000    -0.633000000    -3.418000000
H     2.847000000     0.439000000    -3.554000000
C     1.681000000    -1.345000000    -3.990000000
O     0.840000000    -0.588000000    -4.693000000
C    -0.433000000    -0.241000000    -4.246000000
C    -0.679000000     1.209000000    -4.711000000
C     0.343000000     2.167000000    -4.683000000
H     1.338000000     1.907000000    -4.332000000
C    -2.007000000     1.672000000    -4.918000000
H    -2.832000000     0.969000000    -4.839000000
O    -1.350000000    -1.205000000    -4.692000000
H    -0.338000000    -0.166000000    -3.153000000
C     1.582000000    -2.702000000    -3.796000000
C     0.396000000    -3.455000000    -4.404000000
H     0.784000000    -4.476000000    -4.394000000
H     0.294000000    -3.236000000    -5.469000000
C    -0.873000000    -3.344000000    -3.634000000
C    -1.669000000    -2.225000000    -3.843000000
C    -2.819000000    -2.077000000    -3.152000000
H    -3.409000000    -1.202000000    -3.414000000
C    -3.073000000    -2.940000000    -2.104000000
O    -4.138000000    -2.529000000    -1.322000000
C    -3.787000000    -1.898000000    -0.066000000
H    -2.744000000    -1.550000000    -0.051000000
C    -4.651000000    -0.710000000     0.370000000
C    -5.168000000    -0.607000000     1.695000000
H    -5.088000000    -1.414000000     2.419000000
C    -4.807000000     0.359000000    -0.545000000
H    -4.221000000     0.317000000    -1.459000000
C    -5.253000000     1.584000000    -0.089000000
O    -5.137000000     2.701000000    -0.850000000
C    -5.559000000     1.732000000     1.245000000
H    -5.665000000     2.721000000     1.682000000
C    -5.663000000     0.654000000     2.119000000
O    -6.078000000     0.843000000     3.412000000
C    -5.394000000     0.418000000     4.529000000
C    -4.179000000     1.076000000     4.889000000
H    -3.857000000     1.847000000     4.194000000
C    -5.980000000    -0.483000000     5.380000000
H    -6.937000000    -0.902000000     5.081000000
C    -5.328000000    -0.851000000     6.587000000
H    -5.704000000    -1.676000000     7.187000000
C    -4.053000000    -0.272000000     6.825000000
H    -3.646000000    -0.464000000     7.815000000
C    -3.485000000     0.615000000     5.991000000
O    -2.343000000     1.316000000     6.275000000
C    -1.095000000     0.843000000     5.966000000
C     0.003000000     1.695000000     6.243000000
H    -0.111000000     2.703000000     6.635000000
C     1.299000000     1.278000000     5.915000000
O     2.307000000     2.167000000     6.146000000
C     3.492000000     2.428000000     5.409000000
C     3.485000000     3.156000000     4.237000000
H     2.552000000     3.334000000     3.708000000
C     4.727000000     2.069000000     5.809000000
H     4.717000000     1.447000000     6.701000000
C     5.954000000     2.443000000     5.149000000
H     6.907000000     2.121000000     5.560000000
C     5.860000000     3.016000000     3.836000000
H     6.720000000     3.379000000     3.280000000
C     4.584000000     3.350000000     3.376000000
O     4.343000000     3.907000000     2.155000000
C     4.616000000     3.230000000     1.006000000
C     4.976000000     3.999000000    -0.093000000
H     5.194000000     5.056000000     0.035000000
C     5.080000000     3.363000000    -1.330000000
O     5.414000000     4.113000000    -2.473000000
C     4.652000000     4.070000000    -3.644000000
C     3.288000000     4.276000000    -3.521000000
H     2.873000000     4.386000000    -2.522000000
C     5.144000000     3.658000000    -4.838000000
H     6.204000000     3.417000000    -4.853000000
C     4.395000000     3.632000000    -5.964000000
H     4.798000000     3.490000000    -6.964000000
C     2.978000000     3.852000000    -5.859000000
H     2.411000000     3.742000000    -6.780000000
C     2.450000000     4.192000000    -4.631000000
O     1.070000000     4.507000000    -4.585000000
C     0.101000000     3.544000000    -4.776000000
C    -1.206000000     3.979000000    -5.018000000
H    -1.351000000     5.049000000    -5.142000000
C    -2.206000000     3.060000000    -5.079000000
O    -3.511000000     3.501000000    -5.253000000
C    -4.596000000     3.197000000    -4.388000000
C    -5.786000000     2.716000000    -4.920000000
H    -6.013000000     2.942000000    -5.959000000
C    -6.800000000     2.198000000    -4.098000000
H    -7.802000000     2.027000000    -4.481000000
C    -6.614000000     2.314000000    -2.704000000
H    -7.354000000     1.901000000    -2.023000000
C    -5.396000000     2.727000000    -2.165000000
C    -4.363000000     3.092000000    -2.996000000
H    -3.352000000     3.394000000    -2.732000000
C    -1.469000000     1.653000000    -0.677000000
H    -2.291000000     2.091000000    -1.237000000
C    -1.280000000     0.285000000    -0.844000000
H    -1.914000000    -0.321000000    -1.485000000
C    -0.309000000    -0.401000000    -0.172000000
H    -0.180000000    -1.466000000    -0.323000000
C     0.511000000     0.364000000     0.698000000
H     1.301000000    -0.182000000     1.207000000
C     0.408000000     1.760000000     0.798000000
H     1.063000000     2.380000000     1.405000000
C    -0.668000000     2.398000000     0.139000000
C    -0.829000000     3.898000000     0.189000000
O    -0.126000000     4.598000000     0.904000000
O    -1.685000000     4.441000000    -0.482000000
O     1.143000000     9.380000000     2.824000000
H     1.681000000     8.637000000     2.551000000
H     0.314000000     9.258000000     2.361000000
O    -1.024000000     7.039000000     5.166000000
H    -1.202000000     7.883000000     4.752000000
H    -0.744000000     6.473000000     4.446000000
O     1.458000000     6.910000000     0.609000000
H     0.969000000     6.109000000     0.798000000
H     2.344000000     6.730000000     0.923000000
O    -2.244000000     3.619000000     4.485000000
H    -2.185000000     2.838000000     5.035000000
H    -2.829000000     4.206000000     4.964000000
O    -0.185000000     5.241000000     3.394000000
H    -0.162000000     5.061000000     2.454000000
H    -0.755000000     4.562000000     3.754000000
O    -3.616000000     5.071000000     2.532000000
H    -3.193000000     4.340000000     2.983000000
H    -2.902000000     5.520000000     2.080000000
O     3.951000000     7.119000000     1.698000000
H     4.476000000     7.324000000     0.925000000
H     4.589000000     6.834000000     2.352000000
O     0.097000000     8.195000000    -1.174000000
H    -0.253000000     7.390000000    -1.556000000
H     0.597000000     7.901000000    -0.413000000
O    -2.609000000     7.865000000    -3.386000000
H    -2.471000000     8.604000000    -3.978000000
H    -1.798000000     7.359000000    -3.442000000
O    -5.381000000     7.744000000    -3.285000000
H    -5.695000000     7.053000000    -2.702000000
H    -4.436000000     7.773000000    -3.136000000
O    -2.646000000     8.271000000     3.312000000
H    -2.538000000     7.726000000     2.533000000
H    -3.555000000     8.568000000     3.274000000
O    -6.385000000     5.716000000     2.281000000
H    -6.554000000     6.154000000     1.447000000
H    -5.449000000     5.516000000     2.261000000
O    -3.730000000     6.004000000    -1.436000000
H    -3.056000000     6.518000000    -1.882000000
H    -3.267000000     5.233000000    -1.110000000
O    -1.887000000    10.290000000    -0.453000000
H    -1.346000000     9.500000000    -0.464000000
H    -1.567000000    10.789000000     0.299000000
O     2.201000000     8.716000000    -3.989000000
H     2.225000000     7.998000000    -3.357000000
H     3.118000000     8.865000000    -4.218000000
O    -7.781000000     4.976000000    -0.672000000
H    -7.050000000     4.362000000    -0.741000000
H    -7.378000000     5.797000000    -0.390000000
O    -1.862000000     6.806000000     0.880000000
H    -2.642000000     7.051000000     0.382000000
H    -1.538000000     6.018000000     0.445000000
O    -0.835000000     5.823000000    -2.399000000
H    -0.387000000     5.136000000    -2.892000000
H    -1.220000000     5.369000000    -1.649000000
O     1.628000000     5.179000000     5.715000000
H     1.374000000     5.114000000     4.794000000
H     2.239000000     4.454000000     5.847000000
