215
-1476.97652
C     2.070000000     0.724000000     4.513000000
H     2.960000000     0.273000000     4.082000000
C     0.871000000    -0.051000000     4.490000000
C    -0.308000000     0.561000000     4.926000000
H    -1.218000000     0.036000000     4.647000000
C     0.853000000    -1.351000000     3.780000000
O     2.181000000    -1.892000000     3.897000000
H     0.523000000    -1.180000000     2.745000000
O    -0.127000000    -2.295000000     4.231000000
C    -0.881000000    -2.907000000     3.230000000
C    -2.147000000    -2.487000000     2.919000000
H    -2.646000000    -1.696000000     3.474000000
C    -2.855000000    -3.164000000     1.866000000
O    -4.063000000    -2.646000000     1.536000000
C    -2.297000000    -4.200000000     1.120000000
C    -3.079000000    -4.823000000    -0.064000000
H    -2.739000000    -5.840000000    -0.274000000
C    -2.882000000    -4.004000000    -1.336000000
C    -1.800000000    -4.275000000    -2.180000000
H    -1.213000000    -5.180000000    -2.049000000
H    -4.134000000    -4.934000000     0.193000000
C    -1.015000000    -4.636000000     1.500000000
H    -0.611000000    -5.435000000     0.884000000
C    -0.369000000    -4.034000000     2.544000000
C     0.998000000    -4.474000000     2.867000000
H     1.110000000    -5.514000000     2.551000000
H     1.196000000    -4.545000000     3.939000000
C     2.079000000    -3.612000000     2.205000000
C     2.421000000    -4.046000000     0.893000000
H     1.970000000    -4.892000000     0.381000000
C     2.636000000    -2.461000000     2.725000000
C     3.620000000    -1.801000000     1.987000000
H     3.899000000    -0.896000000     2.519000000
C     4.036000000    -2.261000000     0.812000000
O     4.895000000    -1.464000000     0.062000000
C     4.270000000    -0.557000000    -0.861000000
C     5.047000000     0.748000000    -0.752000000
C     4.669000000     1.748000000    -1.581000000
H     3.925000000     1.482000000    -2.328000000
C     5.871000000     1.078000000     0.361000000
H     6.192000000     0.337000000     1.088000000
O     4.426000000    -1.059000000    -2.146000000
H     3.238000000    -0.425000000    -0.504000000
C     3.409000000    -3.350000000     0.216000000
C     3.897000000    -3.823000000    -1.149000000
H     3.749000000    -4.900000000    -1.250000000
H     4.955000000    -3.651000000    -1.356000000
C     3.015000000    -3.091000000    -2.114000000
C     1.869000000    -3.671000000    -2.580000000
H     1.629000000    -4.712000000    -2.380000000
C     3.376000000    -1.816000000    -2.671000000
C     2.582000000    -1.202000000    -3.623000000
H     2.862000000    -0.216000000    -3.986000000
C     1.361000000    -1.743000000    -4.104000000
O     0.516000000    -1.054000000    -4.916000000
C    -0.681000000    -0.560000000    -4.193000000
C    -0.953000000     0.934000000    -4.523000000
C     0.036000000     1.769000000    -5.088000000
H     1.059000000     1.403000000    -5.059000000
C    -2.204000000     1.450000000    -4.223000000
H    -3.075000000     0.895000000    -3.884000000
O    -1.887000000    -1.377000000    -4.423000000
H    -0.451000000    -0.535000000    -3.118000000
C     1.071000000    -3.010000000    -3.525000000
C    -0.186000000    -3.787000000    -4.057000000
H     0.053000000    -4.846000000    -3.934000000
H    -0.442000000    -3.632000000    -5.108000000
C    -1.442000000    -3.444000000    -3.265000000
C    -2.233000000    -2.375000000    -3.531000000
C    -3.301000000    -2.091000000    -2.762000000
H    -3.882000000    -1.209000000    -3.016000000
C    -3.658000000    -2.826000000    -1.652000000
O    -4.642000000    -2.387000000    -0.798000000
C    -4.161000000    -1.699000000     0.413000000
H    -3.146000000    -1.298000000     0.273000000
C    -5.042000000    -0.526000000     0.755000000
C    -5.087000000    -0.070000000     2.114000000
H    -4.642000000    -0.590000000     2.958000000
C    -5.645000000     0.244000000    -0.261000000
H    -5.582000000    -0.167000000    -1.265000000
C    -6.415000000     1.371000000     0.077000000
O    -7.125000000     2.045000000    -0.954000000
C    -6.595000000     1.773000000     1.349000000
H    -7.297000000     2.559000000     1.614000000
C    -5.852000000     1.102000000     2.352000000
O    -6.008000000     1.562000000     3.679000000
C    -5.062000000     1.546000000     4.688000000
C    -3.838000000     2.094000000     4.504000000
H    -3.529000000     2.564000000     3.574000000
C    -5.489000000     0.903000000     5.865000000
H    -6.489000000     0.479000000     5.834000000
C    -4.651000000     0.959000000     7.011000000
H    -4.994000000     0.528000000     7.947000000
C    -3.391000000     1.565000000     6.901000000
H    -2.760000000     1.628000000     7.784000000
C    -2.924000000     2.076000000     5.632000000
O    -1.609000000     2.590000000     5.486000000
C    -0.384000000     1.900000000     5.373000000
C     0.829000000     2.628000000     5.242000000
H     0.845000000     3.707000000     5.370000000
C     2.038000000     2.065000000     4.812000000
O     3.124000000     2.925000000     4.659000000
C     4.449000000     2.589000000     4.514000000
C     5.004000000     2.694000000     3.222000000
H     4.402000000     3.128000000     2.428000000
C     5.236000000     2.383000000     5.608000000
H     4.784000000     2.315000000     6.594000000
C     6.609000000     2.147000000     5.473000000
H     7.179000000     1.888000000     6.362000000
C     7.166000000     2.202000000     4.175000000
H     8.237000000     2.015000000     4.162000000
C     6.391000000     2.418000000     3.030000000
O     6.981000000     2.595000000     1.750000000
C     6.302000000     2.392000000     0.548000000
C     5.986000000     3.419000000    -0.373000000
H     6.338000000     4.446000000    -0.325000000
C     5.118000000     3.085000000    -1.456000000
O     4.535000000     4.007000000    -2.321000000
C     4.135000000     3.651000000    -3.577000000
C     2.773000000     3.879000000    -3.875000000
H     2.082000000     4.345000000    -3.178000000
C     4.990000000     3.129000000    -4.546000000
H     6.004000000     2.881000000    -4.245000000
C     4.466000000     2.964000000    -5.840000000
H     5.114000000     2.588000000    -6.628000000
C     3.139000000     3.237000000    -6.181000000
H     2.746000000     3.094000000    -7.184000000
C     2.321000000     3.671000000    -5.181000000
O     0.963000000     4.006000000    -5.536000000
C    -0.108000000     3.129000000    -5.197000000
C    -1.368000000     3.700000000    -4.896000000
H    -1.479000000     4.779000000    -4.967000000
C    -2.383000000     2.837000000    -4.386000000
O    -3.531000000     3.491000000    -3.972000000
C    -4.789000000     2.872000000    -3.739000000
C    -5.544000000     2.344000000    -4.736000000
H    -5.091000000     2.413000000    -5.722000000
C    -6.756000000     1.663000000    -4.517000000
H    -7.269000000     1.264000000    -5.388000000
C    -7.296000000     1.559000000    -3.228000000
H    -8.231000000     1.037000000    -3.041000000
C    -6.582000000     2.191000000    -2.179000000
C    -5.359000000     2.780000000    -2.427000000
H    -4.767000000     3.231000000    -1.635000000
C    -1.263000000     0.944000000    -0.455000000
H    -2.280000000     1.053000000    -0.824000000
C    -0.708000000    -0.303000000    -0.359000000
H    -1.296000000    -1.129000000    -0.751000000
C     0.545000000    -0.447000000     0.201000000
H     1.156000000    -1.315000000     0.154000000
C     1.177000000     0.731000000     0.725000000
H     2.109000000     0.680000000     1.282000000
C     0.554000000     1.965000000     0.696000000
H     1.120000000     2.705000000     1.256000000
C    -0.653000000     2.126000000     0.047000000
C    -1.293000000     3.509000000     0.159000000
O    -0.745000000     4.411000000     0.723000000
O    -2.397000000     3.681000000    -0.416000000
O     3.674000000     6.254000000     3.432000000
H     3.998000000     6.352000000     2.536000000
H     3.009000000     5.568000000     3.372000000
O     1.336000000     5.112000000     2.296000000
H     0.930000000     5.879000000     2.701000000
H     0.682000000     4.797000000     1.672000000
O    -1.482000000     5.105000000     3.254000000
H    -0.841000000     5.781000000     3.475000000
H    -1.258000000     4.846000000     2.360000000
O     1.603000000     8.532000000     1.916000000
H     1.002000000     9.192000000     1.570000000
H     1.868000000     8.024000000     1.150000000
O     3.097000000     6.278000000     0.483000000
H     2.420000000     6.012000000     1.105000000
H     2.740000000     6.044000000    -0.374000000
O    -4.848000000     8.419000000     0.201000000
H    -5.037000000     9.306000000     0.506000000
H    -5.444000000     7.861000000     0.701000000
O    -4.034000000     5.638000000     3.302000000
H    -4.362000000     5.476000000     4.186000000
H    -3.129000000     5.328000000     3.321000000
O     0.433000000     7.039000000     3.841000000
H     0.847000000     7.821000000     3.476000000
H     0.630000000     7.078000000     4.777000000
O    -2.743000000     8.863000000     1.979000000
H    -1.953000000     8.595000000     1.511000000
H    -3.435000000     8.308000000     1.619000000
O    -4.834000000     4.254000000     1.052000000
H    -4.138000000     3.764000000     0.614000000
H    -4.452000000     4.516000000     1.889000000
O    -4.732000000     5.924000000    -4.582000000
H    -4.944000000     6.393000000    -3.775000000
H    -4.241000000     5.156000000    -4.290000000
O    -3.950000000     5.498000000    -1.581000000
H    -3.314000000     4.884000000    -1.212000000
H    -4.800000000     5.159000000    -1.301000000
O    -2.255000000     4.903000000     6.906000000
H    -1.759000000     4.334000000     6.317000000
H    -1.749000000     4.904000000     7.719000000
O     0.942000000     6.967000000    -3.590000000
H     0.191000000     7.559000000    -3.623000000
H     0.889000000     6.561000000    -2.725000000
O    -6.938000000     5.058000000    -0.030000000
H    -7.648000000     4.421000000    -0.099000000
H    -6.192000000     4.552000000     0.293000000
O    -3.374000000     8.859000000    -2.951000000
H    -2.556000000     8.389000000    -2.790000000
H    -3.113000000     9.778000000    -3.018000000
O    -6.177000000     6.720000000     1.981000000
H    -5.350000000     6.593000000     2.446000000
H    -6.237000000     5.969000000     1.390000000
O    -1.644000000     7.120000000     0.134000000
H    -1.812000000     6.280000000     0.562000000
H    -2.418000000     7.270000000    -0.409000000
O     0.899000000     5.729000000    -1.043000000
H     0.590000000     4.833000000    -0.911000000
H     0.219000000     6.277000000    -0.649000000
