215
-1472.35079
C     2.152000000     2.970000000     3.832000000
H     3.201000000     2.796000000     3.606000000
C     1.235000000     1.927000000     3.959000000
C    -0.087000000     2.239000000     4.170000000
H    -0.826000000     1.444000000     4.209000000
C     1.633000000     0.481000000     3.680000000
O     3.047000000     0.419000000     3.677000000
H     1.289000000     0.205000000     2.672000000
O     1.097000000    -0.377000000     4.743000000
C     0.644000000    -1.610000000     4.291000000
C    -0.777000000    -1.799000000     4.245000000
H    -1.461000000    -1.020000000     4.572000000
C    -1.306000000    -2.966000000     3.668000000
O    -2.620000000    -2.894000000     3.565000000
C    -0.424000000    -3.949000000     3.219000000
C    -0.958000000    -5.193000000     2.516000000
H    -0.253000000    -6.027000000     2.487000000
C    -1.226000000    -4.819000000     1.043000000
C    -0.187000000    -5.100000000     0.106000000
H     0.717000000    -5.622000000     0.407000000
H    -1.750000000    -5.535000000     3.185000000
C     0.979000000    -3.757000000     3.266000000
H     1.711000000    -4.486000000     2.928000000
C     1.488000000    -2.600000000     3.837000000
C     2.991000000    -2.414000000     3.881000000
H     3.364000000    -3.440000000     3.876000000
H     3.324000000    -1.993000000     4.832000000
C     3.604000000    -1.718000000     2.659000000
C     4.131000000    -2.440000000     1.554000000
H     4.324000000    -3.504000000     1.662000000
C     3.658000000    -0.353000000     2.664000000
C     4.262000000     0.280000000     1.544000000
H     4.196000000     1.365000000     1.585000000
C     4.683000000    -0.420000000     0.431000000
O     5.018000000     0.348000000    -0.664000000
C     3.999000000     0.398000000    -1.690000000
C     3.751000000     1.858000000    -2.164000000
C     3.643000000     2.096000000    -3.556000000
H     3.527000000     1.251000000    -4.230000000
C     3.535000000     2.940000000    -1.275000000
H     3.554000000     2.724000000    -0.210000000
O     4.275000000    -0.598000000    -2.750000000
H     3.112000000     0.063000000    -1.133000000
C     4.594000000    -1.813000000     0.378000000
C     5.093000000    -2.476000000    -0.858000000
H     5.501000000    -3.465000000    -0.635000000
H     5.895000000    -1.976000000    -1.405000000
C     3.899000000    -2.713000000    -1.762000000
C     2.953000000    -3.777000000    -1.611000000
H     3.157000000    -4.608000000    -0.940000000
C     3.585000000    -1.738000000    -2.721000000
C     2.446000000    -1.904000000    -3.485000000
H     2.301000000    -1.187000000    -4.289000000
C     1.570000000    -2.899000000    -3.283000000
O     0.372000000    -2.891000000    -4.043000000
C    -0.720000000    -2.317000000    -3.285000000
C    -1.439000000    -1.139000000    -3.913000000
C    -0.835000000    -0.422000000    -4.974000000
H     0.086000000    -0.743000000    -5.455000000
C    -2.543000000    -0.592000000    -3.219000000
H    -2.904000000    -1.133000000    -2.348000000
O    -1.602000000    -3.349000000    -2.876000000
H    -0.313000000    -1.808000000    -2.399000000
C     1.787000000    -3.919000000    -2.358000000
C     0.826000000    -5.038000000    -2.141000000
H     1.349000000    -5.985000000    -1.993000000
H     0.319000000    -5.193000000    -3.096000000
C    -0.292000000    -4.656000000    -1.187000000
C    -1.439000000    -3.938000000    -1.573000000
C    -2.501000000    -3.713000000    -0.696000000
H    -3.397000000    -3.186000000    -1.014000000
C    -2.387000000    -4.166000000     0.608000000
O    -3.408000000    -3.704000000     1.444000000
C    -3.178000000    -2.535000000     2.278000000
H    -2.381000000    -1.936000000     1.815000000
C    -4.425000000    -1.674000000     2.289000000
C    -4.589000000    -0.632000000     3.225000000
H    -3.918000000    -0.648000000     4.080000000
C    -5.354000000    -1.730000000     1.214000000
H    -5.331000000    -2.621000000     0.592000000
C    -6.433000000    -0.866000000     1.218000000
O    -7.267000000    -0.957000000     0.148000000
C    -6.579000000     0.167000000     2.184000000
H    -7.499000000     0.745000000     2.226000000
C    -5.641000000     0.262000000     3.225000000
O    -5.774000000     1.158000000     4.219000000
C    -4.686000000     1.718000000     4.874000000
C    -3.791000000     2.532000000     4.208000000
H    -3.957000000     2.864000000     3.186000000
C    -4.592000000     1.337000000     6.276000000
H    -5.433000000     0.741000000     6.621000000
C    -3.539000000     1.980000000     6.978000000
H    -3.488000000     1.795000000     8.047000000
C    -2.663000000     2.821000000     6.287000000
H    -1.792000000     3.186000000     6.823000000
C    -2.775000000     3.054000000     4.935000000
O    -1.879000000     3.843000000     4.317000000
C    -0.497000000     3.547000000     4.234000000
C     0.391000000     4.585000000     4.050000000
H    -0.020000000     5.580000000     4.201000000
C     1.695000000     4.296000000     3.918000000
O     2.533000000     5.315000000     3.680000000
C     3.399000000     5.308000000     2.593000000
C     2.873000000     5.386000000     1.310000000
H     1.812000000     5.586000000     1.184000000
C     4.764000000     5.270000000     2.828000000
H     5.182000000     5.225000000     3.831000000
C     5.620000000     5.296000000     1.743000000
H     6.686000000     5.133000000     1.879000000
C     5.065000000     5.152000000     0.433000000
H     5.689000000     5.194000000    -0.456000000
C     3.738000000     5.303000000     0.245000000
O     3.203000000     5.336000000    -1.035000000
C     3.312000000     4.219000000    -1.767000000
C     3.276000000     4.397000000    -3.164000000
H     3.079000000     5.364000000    -3.620000000
C     3.385000000     3.326000000    -4.022000000
O     3.095000000     3.635000000    -5.358000000
C     2.403000000     2.755000000    -6.152000000
C     1.121000000     2.483000000    -5.859000000
H     0.716000000     2.903000000    -4.941000000
C     2.980000000     2.266000000    -7.343000000
H     4.015000000     2.509000000    -7.569000000
C     2.219000000     1.519000000    -8.281000000
H     2.714000000     1.304000000    -9.225000000
C     0.918000000     1.215000000    -7.856000000
H     0.288000000     0.693000000    -8.571000000
C     0.372000000     1.661000000    -6.715000000
O    -0.897000000     1.459000000    -6.415000000
C    -1.440000000     0.750000000    -5.345000000
C    -2.642000000     1.200000000    -4.838000000
H    -3.104000000     2.072000000    -5.294000000
C    -3.226000000     0.502000000    -3.748000000
O    -4.444000000     0.980000000    -3.281000000
C    -5.449000000     0.168000000    -2.784000000
C    -6.103000000    -0.521000000    -3.792000000
H    -5.725000000    -0.398000000    -4.803000000
C    -7.084000000    -1.413000000    -3.423000000
H    -7.511000000    -2.044000000    -4.199000000
C    -7.505000000    -1.550000000    -2.115000000
H    -8.255000000    -2.299000000    -1.872000000
C    -6.882000000    -0.787000000    -1.142000000
C    -5.786000000     0.053000000    -1.431000000
H    -5.265000000     0.721000000    -0.750000000
C    -2.597000000     1.463000000     0.673000000
H    -3.670000000     1.635000000     0.710000000
C    -2.052000000     0.209000000     0.444000000
H    -2.784000000    -0.576000000     0.269000000
C    -0.716000000    -0.047000000     0.300000000
H    -0.379000000    -1.140000000     0.239000000
C     0.200000000     1.031000000     0.369000000
H     1.255000000     0.806000000     0.233000000
C    -0.297000000     2.311000000     0.604000000
H     0.416000000     3.119000000     0.749000000
C    -1.648000000     2.519000000     0.715000000
C    -2.210000000     3.930000000     0.831000000
O    -1.637000000     4.889000000     0.440000000
O    -3.450000000     3.999000000     1.034000000
O    -8.027000000     5.070000000    -0.190000000
H    -8.081000000     4.118000000    -0.265000000
H    -7.486000000     5.219000000     0.586000000
O    -1.755000000     8.062000000    -1.098000000
H    -1.238000000     7.477000000    -0.545000000
H    -2.131000000     7.490000000    -1.766000000
O     0.084000000     5.090000000    -1.594000000
H    -0.081000000     4.262000000    -2.044000000
H    -0.444000000     5.040000000    -0.798000000
O    -3.663000000     6.321000000     3.997000000
H    -3.493000000     5.390000000     4.140000000
H    -3.546000000     6.444000000     3.055000000
O    -4.920000000     7.302000000    -1.749000000
H    -5.039000000     8.238000000    -1.584000000
H    -5.773000000     7.004000000    -2.064000000
O    -4.620000000     4.167000000    -3.967000000
H    -4.968000000     4.159000000    -3.075000000
H    -5.230000000     3.625000000    -4.467000000
O     0.283000000     7.442000000    -3.291000000
H     0.040000000     8.232000000    -2.808000000
H     0.304000000     6.753000000    -2.628000000
O    -2.845000000    10.245000000     0.444000000
H    -2.628000000     9.411000000     0.029000000
H    -2.040000000    10.759000000     0.387000000
O     1.746000000     7.849000000    -0.518000000
H     1.952000000     6.983000000    -0.870000000
H     1.168000000     7.674000000     0.226000000
O    -0.268000000     7.232000000     1.386000000
H    -0.615000000     6.347000000     1.276000000
H    -0.884000000     7.659000000     1.981000000
O    -1.898000000     8.993000000     2.974000000
H    -1.749000000     9.639000000     2.283000000
H    -2.775000000     9.191000000     3.302000000
O    -5.936000000     4.725000000     2.095000000
H    -5.966000000     5.682000000     2.101000000
H    -5.127000000     4.514000000     1.628000000
O    -4.280000000     8.829000000     4.719000000
H    -4.193000000     8.038000000     4.187000000
H    -5.089000000     8.697000000     5.214000000
O    -2.675000000     6.494000000    -3.059000000
H    -3.565000000     6.505000000    -2.706000000
H    -2.317000000     5.652000000    -2.777000000
O    -6.674000000     7.594000000     2.533000000
H    -5.863000000     7.915000000     2.138000000
H    -7.124000000     8.385000000     2.831000000
O    -5.136000000     3.228000000    -0.990000000
H    -5.820000000     2.845000000    -0.441000000
H    -4.574000000     3.702000000    -0.377000000
O    -3.833000000     6.673000000     1.234000000
H    -4.204000000     6.987000000     0.409000000
H    -3.465000000     5.816000000     1.020000000
O    -2.211000000     3.295000000    -2.329000000
H    -2.431000000     2.623000000    -1.684000000
H    -3.047000000     3.517000000    -2.738000000
O    -1.915000000     7.084000000     6.190000000
H    -2.628000000     7.295000000     6.793000000
H    -2.348000000     6.938000000     5.349000000
