215
-1459.15512
C     1.687000000     3.414000000     3.782000000
H     2.716000000     3.232000000     3.480000000
C     0.832000000     2.340000000     4.097000000
C    -0.533000000     2.605000000     4.419000000
H    -1.168000000     1.728000000     4.514000000
C     1.250000000     0.889000000     3.922000000
O     2.673000000     0.818000000     3.918000000
H     0.796000000     0.501000000     2.998000000
O     0.753000000    -0.011000000     4.930000000
C     0.337000000    -1.350000000     4.560000000
C    -0.991000000    -1.495000000     4.338000000
H    -1.564000000    -0.579000000     4.461000000
C    -1.465000000    -2.596000000     3.610000000
O    -2.838000000    -2.662000000     3.302000000
C    -0.612000000    -3.670000000     3.245000000
C    -1.152000000    -4.924000000     2.482000000
H    -0.511000000    -5.771000000     2.734000000
C    -1.203000000    -4.646000000     1.048000000
C    -0.110000000    -4.993000000     0.290000000
H     0.745000000    -5.455000000     0.778000000
H    -2.155000000    -5.187000000     2.826000000
C     0.763000000    -3.487000000     3.504000000
H     1.463000000    -4.195000000     3.068000000
C     1.235000000    -2.332000000     4.182000000
C     2.735000000    -2.060000000     4.216000000
H     3.252000000    -2.970000000     4.528000000
H     2.775000000    -1.381000000     5.070000000
C     3.293000000    -1.423000000     3.000000000
C     3.864000000    -2.202000000     1.992000000
H     3.855000000    -3.277000000     2.155000000
C     3.386000000     0.000000000     2.917000000
C     4.066000000     0.610000000     1.868000000
H     4.134000000     1.688000000     1.750000000
C     4.467000000    -0.177000000     0.808000000
O     4.773000000     0.441000000    -0.332000000
C     3.939000000     0.481000000    -1.486000000
C     3.872000000     1.808000000    -2.186000000
C     3.722000000     1.986000000    -3.545000000
H     3.629000000     1.102000000    -4.171000000
C     3.803000000     2.959000000    -1.439000000
H     3.617000000     2.762000000    -0.387000000
O     4.366000000    -0.573000000    -2.329000000
H     2.934000000     0.207000000    -1.135000000
C     4.416000000    -1.588000000     0.859000000
C     4.974000000    -2.450000000    -0.263000000
H     5.303000000    -3.408000000     0.145000000
H     5.904000000    -2.035000000    -0.656000000
C     3.957000000    -2.677000000    -1.330000000
C     3.135000000    -3.783000000    -1.259000000
H     3.340000000    -4.566000000    -0.534000000
C     3.718000000    -1.745000000    -2.364000000
C     2.679000000    -1.868000000    -3.308000000
H     2.553000000    -1.192000000    -4.149000000
C     1.850000000    -3.003000000    -3.209000000
O     0.753000000    -3.019000000    -3.983000000
C    -0.461000000    -2.537000000    -3.377000000
C    -1.188000000    -1.513000000    -4.220000000
C    -0.596000000    -0.847000000    -5.349000000
H     0.361000000    -1.211000000    -5.714000000
C    -2.438000000    -1.082000000    -3.779000000
H    -2.843000000    -1.593000000    -2.909000000
O    -1.219000000    -3.785000000    -3.072000000
H    -0.357000000    -1.975000000    -2.437000000
C     2.088000000    -3.904000000    -2.138000000
C     1.195000000    -5.080000000    -1.923000000
H     1.699000000    -5.927000000    -1.451000000
H     0.823000000    -5.396000000    -2.900000000
C    -0.038000000    -4.720000000    -1.075000000
C    -1.162000000    -4.145000000    -1.692000000
C    -2.295000000    -3.863000000    -0.959000000
H    -3.201000000    -3.366000000    -1.296000000
C    -2.282000000    -4.051000000     0.423000000
O    -3.427000000    -3.593000000     1.124000000
C    -3.198000000    -2.404000000     1.909000000
H    -2.426000000    -1.745000000     1.484000000
C    -4.387000000    -1.512000000     1.959000000
C    -4.591000000    -0.626000000     3.045000000
H    -3.906000000    -0.715000000     3.885000000
C    -5.363000000    -1.506000000     0.969000000
H    -5.141000000    -2.045000000     0.052000000
C    -6.438000000    -0.621000000     0.927000000
O    -7.166000000    -0.340000000    -0.263000000
C    -6.551000000     0.319000000     1.924000000
H    -7.380000000     1.020000000     1.867000000
C    -5.654000000     0.336000000     2.998000000
O    -5.882000000     1.266000000     3.968000000
C    -4.939000000     1.742000000     4.779000000
C    -4.144000000     2.808000000     4.310000000
H    -4.273000000     3.016000000     3.251000000
C    -4.889000000     1.328000000     6.110000000
H    -5.509000000     0.509000000     6.468000000
C    -4.006000000     1.981000000     6.971000000
H    -3.764000000     1.534000000     7.931000000
C    -3.093000000     2.966000000     6.483000000
H    -2.434000000     3.478000000     7.180000000
C    -3.183000000     3.376000000     5.145000000
O    -2.322000000     4.200000000     4.607000000
C    -1.028000000     3.955000000     4.315000000
C    -0.124000000     4.965000000     3.961000000
H    -0.456000000     5.997000000     3.892000000
C     1.144000000     4.700000000     3.649000000
O     1.909000000     5.711000000     3.258000000
C     2.993000000     5.574000000     2.405000000
C     2.807000000     5.480000000     1.021000000
H     1.772000000     5.530000000     0.695000000
C     4.303000000     5.560000000     2.922000000
H     4.419000000     5.707000000     3.993000000
C     5.353000000     5.525000000     2.030000000
H     6.384000000     5.664000000     2.346000000
C     5.185000000     5.381000000     0.601000000
H     6.025000000     5.530000000    -0.072000000
C     3.843000000     5.233000000     0.125000000
O     3.568000000     5.337000000    -1.176000000
C     3.659000000     4.226000000    -1.970000000
C     3.434000000     4.376000000    -3.298000000
H     3.363000000     5.350000000    -3.773000000
C     3.427000000     3.201000000    -4.109000000
O     3.259000000     3.299000000    -5.451000000
C     2.696000000     2.425000000    -6.282000000
C     1.307000000     2.181000000    -6.228000000
H     0.661000000     2.728000000    -5.546000000
C     3.500000000     1.676000000    -7.213000000
H     4.585000000     1.747000000    -7.217000000
C     2.933000000     0.629000000    -7.925000000
H     3.571000000    -0.064000000    -8.467000000
C     1.531000000     0.430000000    -7.897000000
H     1.199000000    -0.440000000    -8.457000000
C     0.724000000     1.186000000    -7.045000000
O    -0.590000000     0.942000000    -6.929000000
C    -1.180000000     0.285000000    -5.871000000
C    -2.347000000     0.774000000    -5.326000000
H    -2.762000000     1.689000000    -5.739000000
C    -3.060000000     0.022000000    -4.365000000
O    -4.274000000     0.478000000    -3.950000000
C    -5.211000000    -0.326000000    -3.293000000
C    -5.537000000    -1.569000000    -3.867000000
H    -4.943000000    -1.876000000    -4.725000000
C    -6.406000000    -2.422000000    -3.223000000
H    -6.622000000    -3.389000000    -3.670000000
C    -7.054000000    -2.024000000    -1.993000000
H    -7.946000000    -2.546000000    -1.657000000
C    -6.685000000    -0.723000000    -1.472000000
C    -5.804000000     0.108000000    -2.149000000
H    -5.624000000     1.126000000    -1.814000000
C    -2.620000000     1.561000000     0.245000000
H    -3.686000000     1.596000000     0.452000000
C    -2.002000000     0.369000000    -0.257000000
H    -2.485000000    -0.601000000    -0.344000000
C    -0.637000000     0.312000000    -0.459000000
H    -0.148000000    -0.584000000    -0.712000000
C     0.135000000     1.398000000    -0.068000000
H     1.188000000     1.161000000     0.058000000
C    -0.429000000     2.621000000     0.388000000
H     0.198000000     3.427000000     0.761000000
C    -1.854000000     2.708000000     0.580000000
C    -2.417000000     3.981000000     1.072000000
O    -1.649000000     4.938000000     1.197000000
O    -3.614000000     4.163000000     1.211000000
O    -1.564000000     8.078000000    -2.694000000
H    -1.138000000     7.405000000    -2.162000000
H    -0.860000000     8.434000000    -3.237000000
O    -3.657000000     6.929000000    -0.652000000
H    -3.160000000     6.333000000    -0.092000000
H    -3.808000000     6.433000000    -1.456000000
O    -3.081000000     6.850000000     4.859000000
H    -2.814000000     7.167000000     3.996000000
H    -2.915000000     5.908000000     4.830000000
O    -1.173000000     4.743000000    -3.626000000
H    -0.988000000     5.349000000    -2.908000000
H    -0.613000000     3.986000000    -3.450000000
O    -1.972000000     7.309000000     2.442000000
H    -2.074000000     6.442000000     2.050000000
H    -1.379000000     7.772000000     1.850000000
O    -5.244000000     8.060000000     4.536000000
H    -4.452000000     7.609000000     4.828000000
H    -5.595000000     7.503000000     3.842000000
O     1.762000000     7.723000000    -2.529000000
H     1.182000000     7.037000000    -2.197000000
H     1.410000000     8.533000000    -2.161000000
O     0.582000000     8.069000000     0.550000000
H     0.221000000     8.943000000     0.401000000
H     1.460000000     8.229000000     0.896000000
O    -0.242000000     5.927000000    -1.021000000
H    -0.752000000     5.519000000    -0.321000000
H     0.216000000     6.650000000    -0.593000000
O    -5.534000000     7.703000000     1.200000000
H    -6.075000000     8.225000000     0.608000000
H    -4.979000000     7.182000000     0.620000000
O    -8.111000000     2.977000000    -0.321000000
H    -7.169000000     3.134000000    -0.392000000
H    -8.430000000     3.028000000    -1.222000000
O    -3.590000000     9.473000000     1.941000000
H    -3.832000000     8.613000000     2.285000000
H    -4.212000000     9.632000000     1.232000000
O    -7.925000000     4.660000000     3.669000000
H    -6.979000000     4.776000000     3.585000000
H    -8.026000000     4.025000000     4.379000000
O    -1.254000000     6.799000000     7.043000000
H    -0.847000000     7.657000000     7.165000000
H    -1.585000000     6.816000000     6.145000000
O    -4.059000000     5.136000000    -2.643000000
H    -4.474000000     5.371000000    -3.473000000
H    -3.207000000     4.779000000    -2.894000000
O    -5.625000000     3.746000000    -0.683000000
H    -5.279000000     4.336000000    -1.352000000
H    -4.978000000     3.777000000     0.022000000
O    -5.577000000     5.473000000     2.680000000
H    -4.802000000     4.926000000     2.550000000
H    -5.433000000     6.232000000     2.114000000
O    -1.109000000    10.109000000     0.682000000
H    -1.230000000    11.030000000     0.912000000
H    -1.872000000     9.667000000     1.055000000
O    -0.154000000     2.437000000    -3.213000000
H     0.179000000     2.284000000    -2.329000000
H    -0.728000000     1.690000000    -3.385000000
