215
-1452.32297
C     3.632000000     0.491000000    -3.013000000
H     2.990000000    -0.341000000    -3.292000000
C     4.482000000     0.423000000    -1.916000000
C     5.130000000     1.590000000    -1.501000000
H     5.778000000     1.647000000    -0.630000000
C     4.369000000    -0.752000000    -0.874000000
O     4.456000000    -2.100000000    -1.443000000
H     3.372000000    -0.562000000    -0.451000000
O     5.258000000    -0.647000000     0.281000000
C     4.661000000    -0.704000000     1.539000000
C     4.154000000     0.429000000     2.162000000
H     4.230000000     1.474000000     1.872000000
C     3.266000000     0.358000000     3.266000000
O     2.703000000     1.569000000     3.729000000
C     3.006000000    -0.921000000     3.794000000
C     2.153000000    -1.004000000     5.065000000
H     2.376000000    -1.931000000     5.598000000
C     0.631000000    -0.919000000     4.690000000
C    -0.149000000    -2.054000000     4.586000000
H     0.345000000    -2.999000000     4.792000000
H     2.367000000    -0.117000000     5.664000000
C     3.548000000    -2.060000000     3.193000000
H     3.245000000    -3.031000000     3.578000000
C     4.360000000    -1.939000000     2.064000000
C     4.591000000    -3.285000000     1.294000000
H     4.617000000    -4.160000000     1.948000000
H     5.568000000    -3.236000000     0.807000000
C     3.441000000    -3.551000000     0.245000000
C     2.311000000    -4.293000000     0.619000000
H     2.371000000    -4.562000000     1.670000000
C     3.468000000    -2.995000000    -1.056000000
C     2.488000000    -3.267000000    -2.009000000
H     2.545000000    -2.770000000    -2.974000000
C     1.458000000    -4.124000000    -1.665000000
O     0.443000000    -4.368000000    -2.549000000
C    -0.777000000    -3.519000000    -2.304000000
C    -1.264000000    -3.132000000    -3.659000000
C    -2.651000000    -3.030000000    -3.906000000
H    -3.402000000    -3.349000000    -3.189000000
C    -0.460000000    -2.659000000    -4.754000000
H     0.622000000    -2.578000000    -4.694000000
O    -1.804000000    -4.354000000    -1.703000000
H    -0.378000000    -2.683000000    -1.711000000
C     1.330000000    -4.630000000    -0.360000000
C     0.176000000    -5.556000000     0.099000000
H     0.548000000    -6.260000000     0.846000000
H    -0.145000000    -6.305000000    -0.628000000
C    -1.013000000    -4.722000000     0.576000000
C    -1.117000000    -4.435000000     1.912000000
H    -0.429000000    -4.843000000     2.647000000
C    -1.979000000    -4.267000000    -0.331000000
C    -3.038000000    -3.466000000     0.119000000
H    -3.856000000    -3.232000000    -0.558000000
C    -3.060000000    -3.099000000     1.495000000
O    -4.052000000    -2.190000000     1.897000000
C    -3.566000000    -0.892000000     2.140000000
C    -4.443000000     0.196000000     1.535000000
C    -4.696000000     0.009000000     0.175000000
H    -4.394000000    -0.932000000    -0.279000000
C    -4.977000000     1.346000000     2.172000000
H    -4.910000000     1.545000000     3.239000000
O    -3.379000000    -0.617000000     3.589000000
H    -2.602000000    -0.695000000     1.647000000
C    -2.154000000    -3.619000000     2.420000000
C    -2.225000000    -3.238000000     3.874000000
H    -1.808000000    -4.040000000     4.486000000
H    -3.247000000    -3.190000000     4.256000000
C    -1.489000000    -2.004000000     4.199000000
C    -2.092000000    -0.779000000     4.090000000
C    -1.407000000     0.355000000     4.283000000
H    -1.973000000     1.282000000     4.260000000
C    -0.069000000     0.318000000     4.641000000
O     0.555000000     1.483000000     4.657000000
C     1.235000000     1.846000000     3.470000000
H     0.950000000     1.190000000     2.634000000
C     1.044000000     3.350000000     3.090000000
C     2.034000000     4.082000000     2.390000000
H     2.922000000     3.529000000     2.096000000
C    -0.181000000     3.961000000     3.349000000
H    -0.914000000     3.479000000     3.991000000
C    -0.420000000     5.289000000     2.821000000
O    -1.663000000     5.922000000     3.008000000
C     0.581000000     5.978000000     2.148000000
H     0.413000000     6.966000000     1.727000000
C     1.825000000     5.339000000     1.891000000
O     2.749000000     5.947000000     1.137000000
C     4.024000000     5.505000000     0.735000000
C     4.281000000     4.973000000    -0.523000000
H     3.449000000     4.869000000    -1.214000000
C     5.087000000     5.579000000     1.649000000
H     5.057000000     6.008000000     2.648000000
C     6.294000000     5.127000000     1.273000000
H     7.107000000     5.281000000     1.979000000
C     6.539000000     4.547000000     0.029000000
H     7.539000000     4.186000000    -0.199000000
C     5.533000000     4.498000000    -0.911000000
O     5.784000000     3.814000000    -2.082000000
C     5.048000000     2.713000000    -2.357000000
C     4.346000000     2.705000000    -3.538000000
H     4.407000000     3.427000000    -4.348000000
C     3.549000000     1.599000000    -3.914000000
O     2.801000000     1.581000000    -5.092000000
C     2.506000000     0.402000000    -5.806000000
C     1.244000000    -0.075000000    -5.950000000
H     0.409000000     0.271000000    -5.346000000
C     3.573000000    -0.264000000    -6.482000000
H     4.617000000    -0.039000000    -6.279000000
C     3.304000000    -1.296000000    -7.361000000
H     4.083000000    -1.715000000    -7.993000000
C     1.961000000    -1.659000000    -7.602000000
H     1.729000000    -2.372000000    -8.390000000
C     0.902000000    -1.108000000    -6.878000000
O    -0.272000000    -1.720000000    -7.022000000
C    -1.012000000    -2.202000000    -5.918000000
C    -2.375000000    -2.133000000    -6.068000000
H    -2.788000000    -1.791000000    -7.013000000
C    -3.146000000    -2.536000000    -5.044000000
O    -4.503000000    -2.553000000    -5.208000000
C    -5.355000000    -2.150000000    -4.197000000
C    -5.104000000    -0.925000000    -3.553000000
H    -4.293000000    -0.273000000    -3.867000000
C    -6.480000000    -2.908000000    -3.748000000
H    -6.664000000    -3.880000000    -4.198000000
C    -7.225000000    -2.428000000    -2.667000000
H    -8.031000000    -2.954000000    -2.163000000
C    -6.912000000    -1.282000000    -2.002000000
H    -7.445000000    -0.889000000    -1.140000000
C    -5.833000000    -0.496000000    -2.420000000
O    -5.582000000     0.729000000    -1.860000000
C    -5.457000000     0.981000000    -0.518000000
C    -5.903000000     2.144000000     0.087000000
H    -6.355000000     2.843000000    -0.612000000
C    -5.476000000     2.425000000     1.346000000
O    -5.659000000     3.663000000     1.909000000
C    -4.852000000     4.252000000     2.849000000
C    -5.347000000     4.422000000     4.084000000
H    -6.337000000     4.024000000     4.294000000
C    -4.613000000     5.077000000     5.077000000
H    -4.885000000     5.061000000     6.129000000
C    -3.403000000     5.624000000     4.702000000
H    -2.809000000     6.226000000     5.384000000
C    -2.862000000     5.420000000     3.407000000
C    -3.609000000     4.712000000     2.452000000
H    -3.191000000     4.513000000     1.468000000
C    -0.412000000     0.557000000    -2.324000000
H    -0.081000000     0.396000000    -3.347000000
C     0.212000000     0.035000000    -1.237000000
H     1.139000000    -0.515000000    -1.378000000
C    -0.101000000     0.545000000    -0.005000000
H     0.433000000     0.178000000     0.880000000
C    -1.114000000     1.477000000     0.188000000
H    -1.401000000     1.870000000     1.160000000
C    -1.890000000     1.855000000    -0.950000000
H    -2.723000000     2.531000000    -0.773000000
C    -1.395000000     1.502000000    -2.229000000
C    -1.942000000     2.076000000    -3.465000000
O    -2.691000000     3.045000000    -3.422000000
O    -1.525000000     1.713000000    -4.600000000
O    -0.271000000     6.609000000    -1.269000000
H     0.287000000     6.582000000    -2.046000000
H     0.268000000     7.032000000    -0.601000000
O    -6.656000000     5.741000000    -2.861000000
H    -6.639000000     4.859000000    -3.234000000
H    -7.215000000     6.242000000    -3.455000000
O    -3.364000000     6.766000000    -7.527000000
H    -3.175000000     6.010000000    -6.971000000
H    -3.747000000     7.410000000    -6.931000000
O    -5.437000000     3.337000000    -3.719000000
H    -4.559000000     3.357000000    -3.340000000
H    -5.841000000     2.553000000    -3.347000000
O    -0.786000000     7.311000000    -5.214000000
H    -1.632000000     7.046000000    -4.853000000
H    -0.207000000     7.363000000    -4.453000000
O    -5.318000000     1.492000000    -7.873000000
H    -4.458000000     1.411000000    -7.461000000
H    -5.705000000     2.269000000    -7.470000000
O     0.938000000     5.267000000    -6.716000000
H     0.921000000     4.521000000    -6.116000000
H     0.687000000     6.015000000    -6.175000000
O    -2.733000000     4.803000000    -5.491000000
H    -3.063000000     5.467000000    -4.887000000
H    -2.478000000     4.072000000    -4.928000000
O    -2.854000000     1.203000000    -6.910000000
H    -2.374000000     0.925000000    -6.130000000
H    -2.598000000     2.117000000    -7.036000000
O    -5.791000000     3.882000000    -6.448000000
H    -5.061000000     4.381000000    -6.082000000
H    -6.000000000     3.234000000    -5.775000000
O    -0.325000000     0.384000000    -9.185000000
H    -0.265000000    -0.086000000    -8.353000000
H    -1.059000000    -0.029000000    -9.640000000
O    -2.597000000     5.010000000    -1.778000000
H    -2.424000000     4.225000000    -2.297000000
H    -1.742000000     5.255000000    -1.423000000
O     0.682000000     3.665000000    -1.243000000
H     0.325000000     2.781000000    -1.158000000
H     0.482000000     4.087000000    -0.408000000
O     1.508000000     7.493000000    -3.411000000
H     2.374000000     7.897000000    -3.466000000
H     1.675000000     6.556000000    -3.509000000
O     0.781000000     4.957000000    -3.500000000
H     0.592000000     4.549000000    -2.655000000
H     0.748000000     4.235000000    -4.128000000
O    -3.244000000     6.685000000    -3.692000000
H    -3.820000000     7.439000000    -3.573000000
H    -3.319000000     6.194000000    -2.873000000
O    -4.735000000     6.562000000    -1.005000000
H    -3.992000000     5.961000000    -1.061000000
H    -5.326000000     6.277000000    -1.703000000
O     0.418000000     3.083000000    -5.368000000
H     0.917000000     2.285000000    -5.195000000
H    -0.487000000     2.848000000    -5.165000000
O    -1.401000000     3.747000000    -7.586000000
H    -0.604000000     4.237000000    -7.388000000
H    -2.107000000     4.273000000    -7.210000000
