215
-1467.24190
C     2.045000000     3.952000000     2.687000000
H     3.104000000     3.830000000     2.903000000
C     1.114000000     3.039000000     3.129000000
C    -0.292000000     3.279000000     3.007000000
H    -0.994000000     2.526000000     3.356000000
C     1.536000000     1.630000000     3.594000000
O     2.902000000     1.520000000     3.955000000
H     1.204000000     1.163000000     2.654000000
O     0.723000000     1.074000000     4.657000000
C     0.320000000    -0.262000000     4.405000000
C    -1.043000000    -0.418000000     4.212000000
H    -1.759000000     0.399000000     4.252000000
C    -1.612000000    -1.722000000     4.036000000
O    -2.971000000    -1.885000000     3.776000000
C    -0.796000000    -2.845000000     4.076000000
C    -1.252000000    -4.311000000     3.747000000
H    -0.625000000    -5.055000000     4.242000000
C    -1.287000000    -4.503000000     2.192000000
C    -0.205000000    -5.100000000     1.506000000
H     0.688000000    -5.206000000     2.116000000
H    -2.251000000    -4.472000000     4.157000000
C     0.524000000    -2.662000000     4.303000000
H     1.274000000    -3.447000000     4.250000000
C     1.137000000    -1.381000000     4.475000000
C     2.644000000    -1.209000000     4.769000000
H     3.071000000    -2.166000000     5.077000000
H     2.737000000    -0.575000000     5.653000000
C     3.470000000    -0.749000000     3.635000000
C     3.971000000    -1.702000000     2.740000000
H     3.915000000    -2.740000000     3.059000000
C     3.611000000     0.537000000     3.318000000
C     4.121000000     0.909000000     2.072000000
H     4.250000000     1.955000000     1.806000000
C     4.468000000    -0.002000000     1.132000000
O     4.856000000     0.442000000    -0.095000000
C     4.025000000     0.295000000    -1.233000000
C     4.255000000     1.462000000    -2.179000000
C     3.969000000     1.382000000    -3.572000000
H     3.686000000     0.418000000    -3.988000000
C     4.731000000     2.694000000    -1.704000000
H     4.976000000     2.791000000    -0.650000000
O     4.306000000    -0.938000000    -1.882000000
H     2.978000000     0.260000000    -0.897000000
C     4.352000000    -1.339000000     1.469000000
C     4.861000000    -2.420000000     0.525000000
H     5.212000000    -3.330000000     1.015000000
H     5.747000000    -2.044000000     0.011000000
C     3.743000000    -2.731000000    -0.437000000
C     2.865000000    -3.800000000    -0.153000000
H     2.999000000    -4.393000000     0.748000000
C     3.544000000    -2.058000000    -1.596000000
C     2.584000000    -2.426000000    -2.460000000
H     2.397000000    -1.870000000    -3.375000000
C     1.728000000    -3.491000000    -2.159000000
O     0.680000000    -3.624000000    -3.063000000
C    -0.590000000    -3.274000000    -2.497000000
C    -1.405000000    -2.500000000    -3.562000000
C    -0.741000000    -1.477000000    -4.242000000
H     0.336000000    -1.399000000    -4.121000000
C    -2.773000000    -2.557000000    -3.622000000
H    -3.189000000    -3.290000000    -2.935000000
O    -1.208000000    -4.487000000    -2.007000000
H    -0.402000000    -2.537000000    -1.702000000
C     1.898000000    -4.317000000    -1.059000000
C     1.095000000    -5.540000000    -0.676000000
H     1.743000000    -6.162000000    -0.055000000
H     0.903000000    -6.156000000    -1.557000000
C    -0.122000000    -5.127000000     0.096000000
C    -1.242000000    -4.714000000    -0.616000000
C    -2.383000000    -4.232000000     0.099000000
H    -3.194000000    -3.764000000    -0.453000000
C    -2.374000000    -4.088000000     1.459000000
O    -3.429000000    -3.342000000     2.045000000
C    -3.166000000    -1.954000000     2.361000000
H    -2.305000000    -1.597000000     1.778000000
C    -4.419000000    -1.079000000     1.874000000
C    -4.736000000     0.109000000     2.533000000
H    -4.059000000     0.535000000     3.270000000
C    -5.329000000    -1.553000000     0.917000000
H    -5.148000000    -2.482000000     0.382000000
C    -6.420000000    -0.799000000     0.567000000
O    -7.287000000    -1.284000000    -0.378000000
C    -6.701000000     0.415000000     1.183000000
H    -7.535000000     1.032000000     0.861000000
C    -5.900000000     0.876000000     2.254000000
O    -6.240000000     2.080000000     2.855000000
C    -5.238000000     2.994000000     3.272000000
C    -4.119000000     3.327000000     2.460000000
H    -3.812000000     2.719000000     1.613000000
C    -5.603000000     3.837000000     4.320000000
H    -6.588000000     3.778000000     4.776000000
C    -4.644000000     4.884000000     4.693000000
H    -4.854000000     5.537000000     5.537000000
C    -3.406000000     4.994000000     4.085000000
H    -2.677000000     5.711000000     4.455000000
C    -3.165000000     4.252000000     2.945000000
O    -2.075000000     4.640000000     2.177000000
C    -0.699000000     4.494000000     2.463000000
C     0.220000000     5.477000000     2.170000000
H    -0.025000000     6.493000000     1.872000000
C     1.540000000     5.230000000     2.346000000
O     2.423000000     6.225000000     2.020000000
C     3.675000000     5.981000000     1.408000000
C     3.715000000     5.690000000     0.062000000
H     2.792000000     5.559000000    -0.496000000
C     4.875000000     6.015000000     2.138000000
H     4.826000000     6.195000000     3.209000000
C     6.088000000     5.811000000     1.424000000
H     6.993000000     6.044000000     1.978000000
C     6.143000000     5.588000000     0.044000000
H     7.107000000     5.439000000    -0.436000000
C     4.908000000     5.488000000    -0.627000000
O     4.920000000     5.146000000    -1.983000000
C     4.728000000     3.813000000    -2.482000000
C     4.319000000     3.775000000    -3.779000000
H     4.492000000     4.582000000    -4.486000000
C     4.049000000     2.514000000    -4.384000000
O     3.692000000     2.444000000    -5.670000000
C     2.745000000     1.587000000    -6.219000000
C     1.448000000     1.532000000    -5.662000000
H     1.113000000     2.261000000    -4.928000000
C     3.178000000     0.645000000    -7.209000000
H     4.245000000     0.726000000    -7.400000000
C     2.246000000    -0.281000000    -7.633000000
H     2.591000000    -0.965000000    -8.405000000
C     0.913000000    -0.304000000    -7.185000000
H     0.129000000    -0.958000000    -7.559000000
C     0.520000000     0.540000000    -6.151000000
O    -0.760000000     0.493000000    -5.640000000
C    -1.409000000    -0.601000000    -5.069000000
C    -2.822000000    -0.667000000    -5.148000000
H    -3.405000000     0.022000000    -5.753000000
C    -3.519000000    -1.675000000    -4.438000000
O    -4.952000000    -1.657000000    -4.566000000
C    -5.725000000    -2.185000000    -3.587000000
C    -6.348000000    -3.450000000    -3.764000000
H    -6.097000000    -3.953000000    -4.695000000
C    -7.083000000    -3.999000000    -2.759000000
H    -7.601000000    -4.917000000    -3.026000000
C    -7.397000000    -3.236000000    -1.609000000
H    -8.188000000    -3.538000000    -0.927000000
C    -6.801000000    -2.049000000    -1.442000000
C    -5.956000000    -1.505000000    -2.401000000
H    -5.587000000    -0.497000000    -2.230000000
C    -2.601000000     0.901000000    -1.170000000
H    -3.468000000     1.017000000    -1.816000000
C    -2.218000000    -0.425000000    -0.768000000
H    -2.727000000    -1.312000000    -1.137000000
C    -0.999000000    -0.624000000    -0.090000000
H    -0.647000000    -1.600000000     0.251000000
C    -0.138000000     0.464000000     0.176000000
H     0.766000000     0.287000000     0.753000000
C    -0.546000000     1.748000000    -0.175000000
H     0.169000000     2.566000000    -0.136000000
C    -1.738000000     1.974000000    -0.793000000
C    -2.206000000     3.382000000    -0.993000000
O    -1.411000000     4.239000000    -1.082000000
O    -3.386000000     3.687000000    -1.085000000
O    -4.521000000     5.952000000    -2.983000000
H    -4.315000000     5.018000000    -2.931000000
H    -4.290000000     6.296000000    -2.121000000
O     1.431000000     7.992000000    -0.966000000
H     0.503000000     7.870000000    -1.166000000
H     1.788000000     8.425000000    -1.741000000
O    -5.737000000     3.084000000    -1.243000000
H    -4.840000000     3.354000000    -1.043000000
H    -6.251000000     3.388000000    -0.495000000
O    -6.405000000     7.247000000    -0.008000000
H    -7.183000000     6.736000000    -0.232000000
H    -5.673000000     6.651000000    -0.165000000
O    -1.896000000     2.762000000    -3.870000000
H    -1.832000000     1.867000000    -3.536000000
H    -1.707000000     3.315000000    -3.112000000
O    -1.823000000     4.220000000    -6.204000000
H    -2.107000000     5.042000000    -5.804000000
H    -1.723000000     3.618000000    -5.466000000
O    -1.149000000     6.910000000    -1.000000000
H    -1.066000000     5.957000000    -0.963000000
H    -2.025000000     7.087000000    -0.658000000
O    -8.942000000     4.094000000    -1.564000000
H    -9.647000000     3.804000000    -2.144000000
H    -8.148000000     4.007000000    -2.091000000
O    -0.442000000     7.267000000    -3.681000000
H    -0.371000000     8.125000000    -4.098000000
H    -0.981000000     7.421000000    -2.906000000
O    -2.391000000     7.578000000     1.828000000
H    -1.932000000     6.806000000     2.159000000
H    -3.067000000     7.754000000     2.484000000
O     0.960000000     5.133000000    -6.242000000
H     1.218000000     4.873000000    -5.358000000
H     0.016000000     4.973000000    -6.272000000
O    -4.572000000     2.315000000    -5.005000000
H    -3.893000000     2.517000000    -4.362000000
H    -4.716000000     3.140000000    -5.470000000
O    -7.147000000     5.479000000    -3.728000000
H    -6.339000000     5.738000000    -3.285000000
H    -7.150000000     5.989000000    -4.538000000
O    -6.831000000     4.457000000     0.807000000
H    -7.567000000     3.846000000     0.831000000
H    -7.000000000     5.064000000     1.528000000
O    -3.833000000     6.219000000    -0.359000000
H    -3.609000000     6.474000000     0.536000000
H    -3.589000000     5.296000000    -0.414000000
O    -3.047000000     6.621000000    -5.175000000
H    -2.252000000     6.958000000    -4.761000000
H    -3.659000000     6.496000000    -4.450000000
O    -6.501000000     1.329000000    -3.268000000
H    -5.888000000     1.538000000    -3.974000000
H    -6.268000000     1.933000000    -2.563000000
O    -0.490000000     9.407000000     1.831000000
H     0.226000000     8.824000000     1.578000000
H    -1.280000000     8.879000000     1.716000000
O     0.538000000     4.835000000    -3.040000000
H     0.096000000     4.675000000    -2.207000000
H     0.294000000     5.731000000    -3.273000000
