215
-1449.42780
C     1.797000000     4.190000000     2.791000000
H     2.869000000     4.014000000     2.823000000
C     0.942000000     3.151000000     3.129000000
C    -0.410000000     3.281000000     2.855000000
H    -1.066000000     2.443000000     3.074000000
C     1.463000000     1.815000000     3.594000000
O     2.905000000     1.761000000     3.877000000
H     1.163000000     1.142000000     2.778000000
O     0.735000000     1.290000000     4.774000000
C     0.412000000    -0.096000000     4.711000000
C    -0.924000000    -0.378000000     4.508000000
H    -1.664000000     0.419000000     4.511000000
C    -1.466000000    -1.598000000     4.261000000
O    -2.792000000    -1.635000000     3.988000000
C    -0.607000000    -2.653000000     4.233000000
C    -1.107000000    -4.094000000     4.028000000
H    -0.415000000    -4.791000000     4.503000000
C    -1.136000000    -4.332000000     2.447000000
C     0.000000000    -4.694000000     1.691000000
H     0.985000000    -4.751000000     2.147000000
H    -2.045000000    -4.161000000     4.583000000
C     0.754000000    -2.405000000     4.356000000
H     1.477000000    -3.212000000     4.271000000
C     1.320000000    -1.133000000     4.644000000
C     2.794000000    -0.959000000     4.809000000
H     3.229000000    -1.907000000     5.133000000
H     3.101000000    -0.196000000     5.528000000
C     3.467000000    -0.506000000     3.558000000
C     3.920000000    -1.483000000     2.623000000
H     3.999000000    -2.544000000     2.845000000
C     3.565000000     0.833000000     3.220000000
C     3.964000000     1.204000000     1.941000000
H     3.809000000     2.222000000     1.594000000
C     4.551000000     0.269000000     1.089000000
O     4.913000000     0.622000000    -0.193000000
C     4.013000000     0.384000000    -1.280000000
C     4.038000000     1.531000000    -2.250000000
C     3.753000000     1.300000000    -3.627000000
H     3.645000000     0.295000000    -4.025000000
C     4.223000000     2.829000000    -1.752000000
H     4.528000000     3.048000000    -0.732000000
O     4.457000000    -0.833000000    -1.910000000
H     3.000000000     0.181000000    -0.901000000
C     4.464000000    -1.109000000     1.407000000
C     5.083000000    -2.229000000     0.618000000
H     5.344000000    -3.048000000     1.291000000
H     6.043000000    -1.942000000     0.182000000
C     4.030000000    -2.718000000    -0.357000000
C     3.253000000    -3.859000000    -0.068000000
H     3.388000000    -4.394000000     0.868000000
C     3.779000000    -2.003000000    -1.615000000
C     2.820000000    -2.518000000    -2.468000000
H     2.702000000    -2.014000000    -3.423000000
C     1.959000000    -3.518000000    -2.079000000
O     0.847000000    -3.753000000    -2.892000000
C    -0.433000000    -3.280000000    -2.305000000
C    -1.175000000    -2.514000000    -3.358000000
C    -0.606000000    -1.396000000    -4.004000000
H     0.458000000    -1.185000000    -3.945000000
C    -2.519000000    -2.784000000    -3.629000000
H    -2.924000000    -3.726000000    -3.269000000
O    -1.161000000    -4.407000000    -1.673000000
H    -0.097000000    -2.631000000    -1.484000000
C     2.154000000    -4.248000000    -0.897000000
C     1.247000000    -5.321000000    -0.390000000
H     1.868000000    -5.913000000     0.284000000
H     0.862000000    -5.969000000    -1.181000000
C     0.022000000    -4.814000000     0.324000000
C    -1.172000000    -4.432000000    -0.292000000
C    -2.357000000    -4.173000000     0.426000000
H    -3.226000000    -3.936000000    -0.183000000
C    -2.306000000    -4.055000000     1.817000000
O    -3.275000000    -3.331000000     2.353000000
C    -3.088000000    -1.920000000     2.609000000
H    -2.214000000    -1.559000000     2.047000000
C    -4.393000000    -1.212000000     2.118000000
C    -4.790000000     0.021000000     2.672000000
H    -4.356000000     0.326000000     3.620000000
C    -5.011000000    -1.710000000     0.911000000
H    -4.567000000    -2.573000000     0.422000000
C    -6.059000000    -0.950000000     0.360000000
O    -6.805000000    -1.429000000    -0.659000000
C    -6.438000000     0.265000000     0.968000000
H    -7.208000000     0.911000000     0.553000000
C    -5.846000000     0.751000000     2.100000000
O    -6.244000000     1.969000000     2.662000000
C    -5.349000000     2.865000000     3.270000000
C    -4.244000000     3.283000000     2.535000000
H    -4.212000000     2.922000000     1.510000000
C    -5.514000000     3.354000000     4.594000000
H    -6.449000000     3.168000000     5.116000000
C    -4.483000000     4.102000000     5.161000000
H    -4.566000000     4.476000000     6.178000000
C    -3.419000000     4.564000000     4.367000000
H    -2.699000000     5.219000000     4.852000000
C    -3.285000000     4.170000000     3.023000000
O    -2.298000000     4.505000000     2.024000000
C    -0.978000000     4.435000000     2.348000000
C    -0.065000000     5.481000000     2.025000000
H    -0.409000000     6.469000000     1.729000000
C     1.271000000     5.279000000     2.123000000
O     2.141000000     6.346000000     1.871000000
C     3.253000000     6.148000000     1.110000000
C     3.211000000     5.733000000    -0.222000000
H     2.268000000     5.356000000    -0.609000000
C     4.419000000     6.683000000     1.639000000
H     4.467000000     7.151000000     2.619000000
C     5.583000000     6.626000000     0.855000000
H     6.514000000     6.961000000     1.305000000
C     5.562000000     6.122000000    -0.483000000
H     6.471000000     6.093000000    -1.078000000
C     4.352000000     5.723000000    -1.012000000
O     4.377000000     5.172000000    -2.301000000
C     4.034000000     3.901000000    -2.641000000
C     3.879000000     3.670000000    -4.026000000
H     3.962000000     4.486000000    -4.739000000
C     3.778000000     2.326000000    -4.493000000
O     3.419000000     2.218000000    -5.825000000
C     2.424000000     1.418000000    -6.294000000
C     1.170000000     1.345000000    -5.733000000
H     1.046000000     1.928000000    -4.824000000
C     2.781000000     0.591000000    -7.366000000
H     3.814000000     0.645000000    -7.699000000
C     1.837000000    -0.324000000    -7.910000000
H     2.269000000    -1.008000000    -8.636000000
C     0.548000000    -0.388000000    -7.379000000
H    -0.124000000    -1.157000000    -7.751000000
C     0.244000000     0.473000000    -6.263000000
O    -1.004000000     0.481000000    -5.677000000
C    -1.436000000    -0.675000000    -4.950000000
C    -2.756000000    -0.955000000    -5.115000000
H    -3.428000000    -0.477000000    -5.824000000
C    -3.244000000    -2.010000000    -4.536000000
O    -4.640000000    -2.280000000    -4.688000000
C    -5.458000000    -2.748000000    -3.746000000
C    -5.904000000    -4.022000000    -3.726000000
H    -5.525000000    -4.679000000    -4.505000000
C    -6.699000000    -4.487000000    -2.687000000
H    -6.976000000    -5.535000000    -2.603000000
C    -6.908000000    -3.638000000    -1.627000000
H    -7.426000000    -4.037000000    -0.758000000
C    -6.478000000    -2.316000000    -1.608000000
C    -5.776000000    -1.863000000    -2.759000000
H    -5.526000000    -0.807000000    -2.832000000
C    -2.211000000     1.323000000    -0.619000000
H    -3.172000000     1.582000000    -1.056000000
C    -1.979000000     0.017000000    -0.074000000
H    -2.666000000    -0.817000000    -0.194000000
C    -0.775000000    -0.272000000     0.535000000
H    -0.631000000    -1.223000000     0.943000000
C     0.296000000     0.649000000     0.554000000
H     1.260000000     0.383000000     0.979000000
C     0.099000000     1.904000000    -0.038000000
H     0.898000000     2.639000000    -0.096000000
C    -1.194000000     2.276000000    -0.551000000
C    -1.444000000     3.625000000    -1.061000000
O    -0.544000000     4.384000000    -1.254000000
O    -2.521000000     4.048000000    -1.494000000
O    -4.400000000     5.778000000    -5.451000000
H    -4.256000000     5.740000000    -4.506000000
H    -3.523000000     5.719000000    -5.830000000
O     1.112000000     9.115000000     0.197000000
H     1.119000000     8.462000000    -0.502000000
H     2.026000000     9.182000000     0.472000000
O    -2.570000000     7.389000000     3.385000000
H    -3.421000000     7.317000000     2.952000000
H    -2.588000000     8.249000000     3.805000000
O    -5.076000000     3.854000000    -0.805000000
H    -4.128000000     3.914000000    -0.928000000
H    -5.272000000     4.509000000    -0.136000000
O    -2.623000000     2.373000000    -3.626000000
H    -1.684000000     2.185000000    -3.625000000
H    -2.747000000     2.972000000    -2.889000000
O    -2.012000000     4.056000000    -6.110000000
H    -2.461000000     3.216000000    -6.021000000
H    -1.567000000     4.179000000    -5.271000000
O     0.308000000     7.113000000    -1.661000000
H     0.070000000     6.270000000    -1.275000000
H     0.871000000     6.887000000    -2.401000000
O     1.545000000     6.705000000    -4.147000000
H     1.800000000     7.350000000    -4.807000000
H     2.364000000     6.476000000    -3.708000000
O    -2.124000000     8.546000000    -3.692000000
H    -1.475000000     8.664000000    -2.999000000
H    -2.378000000     7.625000000    -3.628000000
O    -5.527000000     7.835000000     1.859000000
H    -5.680000000     7.265000000     1.105000000
H    -6.379000000     8.235000000     2.034000000
O    -2.485000000     6.495000000    -0.221000000
H    -1.928000000     5.917000000    -0.742000000
H    -2.381000000     6.182000000     0.677000000
O     0.387000000     4.792000000    -6.961000000
H    -0.483000000     4.704000000    -6.573000000
H     0.481000000     4.019000000    -7.518000000
O    -5.241000000     1.759000000    -4.408000000
H    -4.338000000     1.954000000    -4.158000000
H    -5.515000000     2.515000000    -4.927000000
O    -6.258000000     6.322000000    -0.075000000
H    -6.225000000     6.066000000    -0.996000000
H    -7.144000000     6.093000000     0.207000000
O    -3.389000000     6.321000000    -2.870000000
H    -3.429000000     6.612000000    -1.959000000
H    -3.323000000     5.368000000    -2.813000000
O     0.028000000     8.920000000     2.618000000
H    -0.830000000     8.509000000     2.725000000
H     0.245000000     8.784000000     1.695000000
O    -3.496000000     9.273000000     0.498000000
H    -4.203000000     9.146000000     1.130000000
H    -3.255000000     8.387000000     0.226000000
O    -6.699000000     2.215000000    -2.149000000
H    -6.076000000     1.840000000    -2.771000000
H    -6.168000000     2.781000000    -1.589000000
O    -0.485000000     4.421000000    -3.898000000
H    -0.472000000     4.514000000    -2.945000000
H     0.218000000     4.995000000    -4.204000000
