215
-1452.54426
C     0.678000000     4.400000000     2.816000000
H     1.716000000     4.212000000     2.554000000
C    -0.063000000     3.347000000     3.402000000
C    -1.390000000     3.674000000     3.801000000
H    -1.997000000     2.847000000     4.163000000
C     0.629000000     1.948000000     3.562000000
O     2.085000000     2.125000000     3.522000000
H     0.199000000     1.303000000     2.782000000
O     0.268000000     1.236000000     4.743000000
C     0.050000000    -0.104000000     4.639000000
C    -1.259000000    -0.462000000     4.480000000
H    -2.001000000     0.332000000     4.466000000
C    -1.567000000    -1.821000000     4.228000000
O    -2.818000000    -2.115000000     3.750000000
C    -0.491000000    -2.786000000     4.139000000
C    -0.703000000    -4.232000000     3.656000000
H    -0.006000000    -4.924000000     4.134000000
C    -0.633000000    -4.405000000     2.140000000
C     0.540000000    -4.706000000     1.495000000
H     1.394000000    -4.864000000     2.148000000
H    -1.597000000    -4.673000000     4.102000000
C     0.803000000    -2.306000000     4.423000000
H     1.618000000    -3.025000000     4.424000000
C     1.103000000    -0.958000000     4.678000000
C     2.489000000    -0.440000000     4.805000000
H     3.077000000    -1.181000000     5.351000000
H     2.472000000     0.423000000     5.473000000
C     3.141000000    -0.002000000     3.554000000
C     3.991000000    -0.957000000     2.884000000
H     4.209000000    -1.874000000     3.426000000
C     2.995000000     1.285000000     3.030000000
C     3.772000000     1.712000000     1.951000000
H     3.829000000     2.786000000     1.788000000
C     4.399000000     0.726000000     1.175000000
O     4.916000000     1.126000000    -0.008000000
C     4.079000000     0.788000000    -1.072000000
C     3.778000000     1.943000000    -2.047000000
C     3.830000000     1.701000000    -3.439000000
H     4.127000000     0.695000000    -3.726000000
C     3.419000000     3.230000000    -1.592000000
H     3.335000000     3.348000000    -0.515000000
O     4.692000000    -0.348000000    -1.691000000
H     3.113000000     0.426000000    -0.689000000
C     4.569000000    -0.585000000     1.671000000
C     5.240000000    -1.637000000     0.816000000
H     5.516000000    -2.510000000     1.411000000
H     6.154000000    -1.235000000     0.375000000
C     4.311000000    -2.211000000    -0.205000000
C     3.597000000    -3.359000000     0.184000000
H     3.707000000    -3.875000000     1.134000000
C     4.012000000    -1.511000000    -1.379000000
C     3.211000000    -2.062000000    -2.312000000
H     3.086000000    -1.546000000    -3.260000000
C     2.472000000    -3.185000000    -2.004000000
O     1.483000000    -3.667000000    -2.901000000
C     0.086000000    -3.345000000    -2.648000000
C    -0.554000000    -2.738000000    -3.895000000
C     0.157000000    -2.144000000    -4.930000000
H     1.224000000    -2.064000000    -4.740000000
C    -1.987000000    -2.653000000    -3.886000000
H    -2.591000000    -3.008000000    -3.055000000
O    -0.591000000    -4.493000000    -2.009000000
H     0.068000000    -2.529000000    -1.911000000
C     2.709000000    -3.861000000    -0.780000000
C     1.906000000    -5.126000000    -0.485000000
H     2.431000000    -5.817000000     0.178000000
H     1.794000000    -5.733000000    -1.386000000
C     0.572000000    -4.800000000     0.098000000
C    -0.590000000    -4.500000000    -0.644000000
C    -1.764000000    -4.186000000     0.019000000
H    -2.670000000    -3.900000000    -0.509000000
C    -1.772000000    -4.153000000     1.365000000
O    -2.930000000    -3.627000000     1.990000000
C    -2.908000000    -2.264000000     2.267000000
H    -2.014000000    -1.841000000     1.787000000
C    -4.112000000    -1.561000000     1.669000000
C    -4.690000000    -0.417000000     2.358000000
H    -4.268000000     0.051000000     3.243000000
C    -4.872000000    -2.099000000     0.651000000
H    -4.592000000    -3.046000000     0.196000000
C    -5.911000000    -1.341000000     0.096000000
O    -6.670000000    -1.852000000    -0.905000000
C    -6.309000000    -0.192000000     0.688000000
H    -7.059000000     0.456000000     0.241000000
C    -5.802000000     0.245000000     1.844000000
O    -6.251000000     1.422000000     2.317000000
C    -5.706000000     2.229000000     3.313000000
C    -4.908000000     3.340000000     2.983000000
H    -4.695000000     3.550000000     1.938000000
C    -5.995000000     2.019000000     4.632000000
H    -6.748000000     1.257000000     4.815000000
C    -5.444000000     2.791000000     5.665000000
H    -5.600000000     2.603000000     6.724000000
C    -4.539000000     3.815000000     5.278000000
H    -4.093000000     4.476000000     6.017000000
C    -4.279000000     4.084000000     3.972000000
O    -3.412000000     5.057000000     3.715000000
C    -2.039000000     4.872000000     3.434000000
C    -1.285000000     5.836000000     2.811000000
H    -1.742000000     6.811000000     2.657000000
C     0.068000000     5.622000000     2.529000000
O     0.794000000     6.687000000     2.067000000
C     1.914000000     6.498000000     1.321000000
C     1.865000000     6.086000000    -0.019000000
H     0.966000000     5.792000000    -0.554000000
C     3.166000000     6.751000000     1.900000000
H     3.101000000     7.033000000     2.948000000
C     4.380000000     6.729000000     1.102000000
H     5.362000000     6.993000000     1.487000000
C     4.265000000     6.276000000    -0.221000000
H     5.149000000     6.245000000    -0.853000000
C     3.027000000     5.911000000    -0.745000000
O     2.955000000     5.533000000    -2.065000000
C     3.264000000     4.269000000    -2.458000000
C     3.315000000     4.032000000    -3.851000000
H     3.197000000     4.897000000    -4.499000000
C     3.632000000     2.709000000    -4.367000000
O     3.657000000     2.446000000    -5.738000000
C     3.330000000     1.214000000    -6.189000000
C     1.999000000     0.780000000    -6.173000000
H     1.177000000     1.453000000    -5.942000000
C     4.333000000     0.322000000    -6.727000000
H     5.334000000     0.743000000    -6.786000000
C     3.932000000    -0.907000000    -7.311000000
H     4.712000000    -1.515000000    -7.763000000
C     2.571000000    -1.281000000    -7.309000000
H     2.205000000    -2.199000000    -7.761000000
C     1.588000000    -0.474000000    -6.703000000
O     0.264000000    -0.771000000    -6.937000000
C    -0.503000000    -1.447000000    -5.962000000
C    -1.911000000    -1.442000000    -6.008000000
H    -2.406000000    -0.875000000    -6.792000000
C    -2.678000000    -2.061000000    -4.960000000
O    -4.111000000    -1.800000000    -4.947000000
C    -4.872000000    -2.452000000    -4.050000000
C    -5.182000000    -3.811000000    -4.255000000
H    -4.912000000    -4.292000000    -5.191000000
C    -5.916000000    -4.563000000    -3.305000000
H    -6.104000000    -5.630000000    -3.394000000
C    -6.471000000    -3.828000000    -2.202000000
H    -7.066000000    -4.358000000    -1.463000000
C    -6.126000000    -2.518000000    -1.970000000
C    -5.329000000    -1.778000000    -2.856000000
H    -5.079000000    -0.734000000    -2.686000000
C    -1.872000000     1.960000000     0.732000000
H    -2.727000000     2.425000000     1.217000000
C    -1.486000000     0.607000000     0.937000000
H    -1.851000000     0.019000000     1.775000000
C    -0.532000000     0.030000000     0.066000000
H    -0.226000000    -1.027000000     0.225000000
C     0.081000000     0.874000000    -0.875000000
H     0.849000000     0.519000000    -1.558000000
C    -0.256000000     2.206000000    -1.052000000
H     0.204000000     2.875000000    -1.775000000
C    -1.260000000     2.751000000    -0.288000000
C    -1.733000000     4.151000000    -0.602000000
O    -1.141000000     4.844000000    -1.399000000
O    -2.898000000     4.395000000    -0.334000000
O    -7.092000000     6.751000000     0.115000000
H    -6.290000000     7.273000000     0.113000000
H    -6.866000000     5.967000000     0.617000000
O    -1.527000000     1.111000000    -3.524000000
H    -1.513000000     0.154000000    -3.541000000
H    -1.180000000     1.340000000    -2.662000000
O    -1.376000000     3.316000000    -5.276000000
H    -1.530000000     2.555000000    -4.716000000
H    -0.748000000     3.849000000    -4.788000000
O    -1.583000000     7.508000000    -1.124000000
H    -1.337000000     6.591000000    -1.240000000
H    -0.750000000     7.970000000    -1.030000000
O    -7.052000000     3.942000000     0.672000000
H    -6.360000000     3.577000000     0.121000000
H    -7.860000000     3.763000000     0.191000000
O     0.833000000     8.737000000    -1.023000000
H     1.338000000     8.837000000    -1.830000000
H     1.488000000     8.540000000    -0.354000000
O    -2.287000000     7.125000000    -4.593000000
H    -1.376000000     7.383000000    -4.453000000
H    -2.520000000     6.633000000    -3.806000000
O    -5.612000000     7.285000000     2.911000000
H    -5.010000000     7.211000000     2.171000000
H    -5.586000000     6.423000000     3.327000000
O    -4.252000000     6.400000000     0.626000000
H    -3.516000000     7.005000000     0.534000000
H    -3.893000000     5.547000000     0.383000000
O     0.395000000     6.567000000    -6.096000000
H     0.487000000     7.380000000    -5.599000000
H     0.286000000     5.890000000    -5.429000000
O    -4.141000000     2.175000000    -3.349000000
H    -3.403000000     1.600000000    -3.550000000
H    -4.074000000     2.883000000    -3.989000000
O    -3.524000000     4.955000000    -2.904000000
H    -4.444000000     4.739000000    -2.753000000
H    -3.137000000     4.976000000    -2.029000000
O    -3.919000000     4.309000000    -5.766000000
H    -3.827000000     4.909000000    -5.026000000
H    -3.020000000     4.101000000    -6.019000000
O    -6.817000000     1.509000000    -4.299000000
H    -6.036000000     1.805000000    -3.831000000
H    -7.358000000     1.097000000    -3.625000000
O    -6.825000000     4.860000000    -2.783000000
H    -7.138000000     4.334000000    -2.047000000
H    -7.622000000     5.193000000    -3.195000000
O    -3.353000000     9.282000000     0.659000000
H    -2.658000000     9.044000000     0.045000000
H    -3.966000000     9.800000000     0.137000000
O    -5.053000000     2.687000000    -0.652000000
H    -4.755000000     2.398000000    -1.514000000
H    -4.398000000     3.326000000    -0.373000000
O    -3.803000000     8.599000000    -2.463000000
H    -3.181000000     7.975000000    -2.089000000
H    -4.663000000     8.250000000    -2.229000000
O     0.113000000     5.112000000    -3.842000000
H     0.629000000     5.856000000    -3.532000000
H    -0.327000000     4.782000000    -3.059000000
