215
-1486.33182
C     0.733000000     4.387000000     3.159000000
H     1.801000000     4.380000000     2.959000000
C     0.021000000     3.177000000     3.469000000
C    -1.330000000     3.212000000     3.706000000
H    -1.829000000     2.307000000     4.044000000
C     0.785000000     1.889000000     3.686000000
O     2.153000000     2.110000000     3.861000000
H     0.676000000     1.264000000     2.787000000
O     0.286000000     1.083000000     4.774000000
C     0.191000000    -0.306000000     4.662000000
C    -1.034000000    -0.838000000     4.375000000
H    -1.884000000    -0.176000000     4.516000000
C    -1.162000000    -2.131000000     3.923000000
O    -2.374000000    -2.625000000     3.549000000
C    -0.024000000    -2.924000000     3.813000000
C    -0.181000000    -4.411000000     3.372000000
H     0.596000000    -5.007000000     3.855000000
C    -0.187000000    -4.430000000     1.860000000
C     1.099000000    -4.601000000     1.233000000
H     1.968000000    -4.686000000     1.881000000
H    -1.148000000    -4.732000000     3.766000000
C     1.239000000    -2.404000000     4.092000000
H     2.069000000    -3.096000000     3.982000000
C     1.342000000    -1.073000000     4.516000000
C     2.767000000    -0.504000000     4.715000000
H     3.337000000    -1.392000000     4.994000000
H     2.703000000     0.231000000     5.520000000
C     3.329000000     0.114000000     3.475000000
C     4.246000000    -0.620000000     2.795000000
H     4.480000000    -1.619000000     3.156000000
C     3.049000000     1.419000000     3.079000000
C     3.571000000     2.005000000     1.983000000
H     3.385000000     3.055000000     1.770000000
C     4.479000000     1.201000000     1.161000000
O     4.814000000     1.687000000    -0.069000000
C     4.021000000     1.255000000    -1.183000000
C     3.618000000     2.392000000    -2.188000000
C     3.447000000     2.208000000    -3.575000000
H     3.685000000     1.267000000    -4.065000000
C     3.165000000     3.539000000    -1.577000000
H     3.136000000     3.720000000    -0.505000000
O     4.755000000     0.201000000    -1.866000000
H     3.061000000     0.859000000    -0.821000000
C     4.654000000    -0.134000000     1.545000000
C     5.468000000    -1.078000000     0.702000000
H     5.831000000    -1.845000000     1.389000000
H     6.316000000    -0.545000000     0.269000000
C     4.573000000    -1.708000000    -0.346000000
C     3.908000000    -2.890000000    -0.056000000
H     4.179000000    -3.419000000     0.854000000
C     4.341000000    -1.083000000    -1.607000000
C     3.523000000    -1.736000000    -2.593000000
H     3.343000000    -1.347000000    -3.592000000
C     2.930000000    -2.924000000    -2.243000000
O     1.866000000    -3.289000000    -3.125000000
C     0.516000000    -3.252000000    -2.690000000
C    -0.421000000    -2.716000000    -3.837000000
C     0.022000000    -1.684000000    -4.715000000
H     1.072000000    -1.440000000    -4.856000000
C    -1.791000000    -3.140000000    -3.826000000
H    -2.108000000    -4.004000000    -3.248000000
O     0.052000000    -4.557000000    -2.262000000
H     0.501000000    -2.579000000    -1.821000000
C     3.048000000    -3.512000000    -0.958000000
C     2.492000000    -4.870000000    -0.752000000
H     3.198000000    -5.440000000    -0.145000000
H     2.412000000    -5.387000000    -1.711000000
C     1.140000000    -4.789000000    -0.147000000
C    -0.029000000    -4.707000000    -0.924000000
C    -1.200000000    -4.419000000    -0.338000000
H    -2.033000000    -4.262000000    -1.019000000
C    -1.309000000    -4.217000000     1.035000000
O    -2.506000000    -3.988000000     1.607000000
C    -2.690000000    -2.618000000     2.122000000
H    -1.984000000    -1.915000000     1.657000000
C    -3.981000000    -2.092000000     1.824000000
C    -4.462000000    -0.958000000     2.534000000
H    -3.877000000    -0.690000000     3.410000000
C    -4.626000000    -2.395000000     0.642000000
H    -4.268000000    -3.136000000    -0.068000000
C    -5.813000000    -1.805000000     0.255000000
O    -6.494000000    -2.116000000    -0.883000000
C    -6.387000000    -0.852000000     1.030000000
H    -7.314000000    -0.387000000     0.705000000
C    -5.687000000    -0.372000000     2.127000000
O    -6.189000000     0.661000000     2.885000000
C    -5.527000000     1.439000000     3.799000000
C    -4.753000000     2.488000000     3.302000000
H    -4.632000000     2.603000000     2.228000000
C    -5.635000000     1.240000000     5.169000000
H    -6.189000000     0.351000000     5.459000000
C    -5.139000000     2.203000000     6.044000000
H    -5.348000000     2.097000000     7.105000000
C    -4.439000000     3.276000000     5.524000000
H    -3.946000000     3.892000000     6.272000000
C    -4.151000000     3.391000000     4.198000000
O    -3.371000000     4.506000000     3.867000000
C    -2.054000000     4.391000000     3.511000000
C    -1.392000000     5.527000000     3.096000000
H    -1.933000000     6.467000000     3.032000000
C    -0.043000000     5.584000000     2.994000000
O     0.581000000     6.755000000     2.546000000
C     1.642000000     6.742000000     1.664000000
C     1.420000000     6.255000000     0.393000000
H     0.436000000     5.948000000     0.047000000
C     2.970000000     7.095000000     2.055000000
H     3.097000000     7.429000000     3.081000000
C     3.998000000     7.087000000     1.115000000
H     5.018000000     7.334000000     1.399000000
C     3.779000000     6.568000000    -0.182000000
H     4.539000000     6.561000000    -0.959000000
C     2.497000000     6.192000000    -0.536000000
O     2.254000000     5.778000000    -1.841000000
C     2.698000000     4.586000000    -2.343000000
C     2.652000000     4.460000000    -3.753000000
H     2.314000000     5.296000000    -4.360000000
C     2.999000000     3.266000000    -4.370000000
O     2.981000000     3.098000000    -5.758000000
C     2.342000000     2.088000000    -6.497000000
C     1.159000000     1.425000000    -5.986000000
H     0.628000000     1.830000000    -5.128000000
C     2.846000000     1.721000000    -7.730000000
H     3.670000000     2.230000000    -8.223000000
C     2.203000000     0.727000000    -8.457000000
H     2.516000000     0.529000000    -9.479000000
C     1.071000000     0.091000000    -8.012000000
H     0.763000000    -0.727000000    -8.658000000
C     0.521000000     0.422000000    -6.753000000
O    -0.680000000    -0.131000000    -6.498000000
C    -0.952000000    -1.127000000    -5.585000000
C    -2.298000000    -1.628000000    -5.645000000
H    -2.981000000    -1.219000000    -6.386000000
C    -2.728000000    -2.552000000    -4.717000000
O    -3.960000000    -3.138000000    -4.890000000
C    -4.737000000    -3.549000000    -3.861000000
C    -4.918000000    -4.915000000    -3.611000000
H    -4.339000000    -5.617000000    -4.205000000
C    -5.648000000    -5.326000000    -2.494000000
H    -5.709000000    -6.384000000    -2.255000000
C    -6.142000000    -4.406000000    -1.568000000
H    -6.754000000    -4.743000000    -0.736000000
C    -5.946000000    -3.041000000    -1.813000000
C    -5.231000000    -2.625000000    -2.950000000
H    -5.140000000    -1.569000000    -3.193000000
C    -1.236000000     1.788000000     0.253000000
H    -2.057000000     2.427000000     0.567000000
C    -0.918000000     0.643000000     0.943000000
H    -1.486000000     0.443000000     1.848000000
C     0.021000000    -0.322000000     0.504000000
H     0.192000000    -1.272000000     0.971000000
C     0.609000000    -0.100000000    -0.708000000
H     1.436000000    -0.727000000    -1.032000000
C     0.326000000     1.081000000    -1.430000000
H     0.944000000     1.374000000    -2.275000000
C    -0.601000000     2.019000000    -0.969000000
C    -0.974000000     3.247000000    -1.825000000
O    -0.414000000     3.384000000    -2.914000000
O    -2.022000000     3.780000000    -1.651000000
O    -2.980000000     9.261000000    -4.093000000
H    -3.709000000     9.175000000    -3.479000000
H    -2.973000000     8.434000000    -4.575000000
O    -2.686000000    -0.660000000    -1.748000000
H    -3.385000000    -0.478000000    -1.120000000
H    -1.885000000    -0.385000000    -1.302000000
O    -2.201000000     2.157000000    -4.786000000
H    -1.891000000     2.375000000    -5.665000000
H    -1.724000000     2.753000000    -4.208000000
O    -2.299000000     6.411000000    -0.598000000
H    -2.327000000     5.465000000    -0.739000000
H    -1.855000000     6.756000000    -1.373000000
O    -6.558000000     2.800000000    -0.410000000
H    -5.675000000     2.622000000    -0.736000000
H    -7.095000000     2.098000000    -0.778000000
O     2.466000000     8.740000000    -2.927000000
H     2.180000000     7.871000000    -3.210000000
H     3.405000000     8.756000000    -3.115000000
O    -0.644000000     7.396000000    -2.562000000
H     0.127000000     7.099000000    -2.079000000
H    -0.779000000     8.297000000    -2.267000000
O    -2.901000000     6.880000000    -5.188000000
H    -2.023000000     6.501000000    -5.141000000
H    -3.438000000     6.307000000    -4.641000000
O    -4.761000000     7.176000000     0.486000000
H    -3.932000000     6.880000000     0.111000000
H    -5.420000000     6.606000000     0.092000000
O     1.085000000     6.398000000    -6.234000000
H     1.250000000     7.321000000    -6.039000000
H     0.382000000     6.149000000    -5.635000000
O    -4.352000000     0.931000000    -3.735000000
H    -3.951000000     0.134000000    -3.389000000
H    -3.615000000     1.453000000    -4.052000000
O    -1.449000000     9.608000000    -1.255000000
H    -1.779000000     9.242000000    -0.434000000
H    -1.980000000    10.392000000    -1.398000000
O    -3.962000000     5.167000000    -3.239000000
H    -4.610000000     5.370000000    -2.564000000
H    -3.307000000     4.633000000    -2.789000000
O    -4.600000000     3.957000000    -6.546000000
H    -4.386000000     4.207000000    -5.647000000
H    -3.903000000     3.350000000    -6.797000000
O    -6.663000000     0.969000000    -5.040000000
H    -5.815000000     1.295000000    -4.737000000
H    -7.274000000     1.208000000    -4.344000000
O    -6.391000000     5.311000000    -0.673000000
H    -6.513000000     4.382000000    -0.479000000
H    -7.235000000     5.595000000    -1.024000000
O    -2.330000000     8.523000000     1.274000000
H    -2.279000000     7.909000000     0.542000000
H    -3.268000000     8.653000000     1.412000000
O    -4.121000000     2.157000000    -1.097000000
H    -3.927000000     1.399000000    -1.649000000
H    -3.435000000     2.789000000    -1.310000000
O    -0.733000000     5.551000000    -4.397000000
H    -0.938000000     6.129000000    -3.662000000
H    -0.699000000     4.676000000    -4.010000000
