215
-1454.30109
C     2.986000000     3.356000000     2.776000000
H     3.925000000     3.041000000     2.329000000
C     2.073000000     2.461000000     3.375000000
C     0.871000000     3.037000000     3.885000000
H     0.091000000     2.440000000     4.350000000
C     2.307000000     0.962000000     3.294000000
O     3.741000000     0.651000000     3.304000000
H     1.763000000     0.575000000     2.420000000
O     1.764000000     0.320000000     4.449000000
C     1.038000000    -0.836000000     4.236000000
C    -0.341000000    -0.688000000     4.191000000
H    -0.917000000     0.217000000     4.363000000
C    -1.094000000    -1.837000000     3.820000000
O    -2.465000000    -1.642000000     3.793000000
C    -0.466000000    -3.055000000     3.677000000
C    -1.208000000    -4.311000000     3.367000000
H    -0.638000000    -5.183000000     3.696000000
C    -1.571000000    -4.403000000     1.880000000
C    -0.587000000    -4.848000000     0.937000000
H     0.282000000    -5.311000000     1.398000000
H    -2.160000000    -4.368000000     3.899000000
C     0.924000000    -3.216000000     3.915000000
H     1.479000000    -4.148000000     3.851000000
C     1.741000000    -2.093000000     4.085000000
C     3.237000000    -2.096000000     4.097000000
H     3.522000000    -3.128000000     4.310000000
H     3.650000000    -1.513000000     4.924000000
C     3.828000000    -1.684000000     2.740000000
C     4.058000000    -2.616000000     1.725000000
H     3.722000000    -3.644000000     1.837000000
C     4.193000000    -0.337000000     2.565000000
C     4.750000000     0.082000000     1.358000000
H     4.859000000     1.146000000     1.165000000
C     4.877000000    -0.887000000     0.292000000
O     5.063000000    -0.430000000    -0.968000000
C     3.993000000    -0.401000000    -1.898000000
C     4.061000000     0.930000000    -2.701000000
C     3.772000000     1.072000000    -4.058000000
H     3.522000000     0.189000000    -4.640000000
C     4.426000000     2.164000000    -2.122000000
H     4.770000000     2.229000000    -1.093000000
O     4.096000000    -1.533000000    -2.772000000
H     3.040000000    -0.501000000    -1.358000000
C     4.523000000    -2.223000000     0.447000000
C     4.611000000    -3.384000000    -0.580000000
H     4.663000000    -4.338000000    -0.050000000
H     5.474000000    -3.201000000    -1.223000000
C     3.422000000    -3.490000000    -1.469000000
C     2.443000000    -4.450000000    -1.303000000
H     2.712000000    -5.108000000    -0.480000000
C     3.199000000    -2.607000000    -2.547000000
C     2.009000000    -2.613000000    -3.237000000
H     1.818000000    -1.911000000    -4.045000000
C     0.997000000    -3.526000000    -2.864000000
O    -0.254000000    -3.294000000    -3.402000000
C    -1.320000000    -2.834000000    -2.517000000
C    -2.172000000    -1.693000000    -3.075000000
C    -1.537000000    -0.586000000    -3.533000000
H    -0.455000000    -0.498000000    -3.471000000
C    -3.587000000    -1.766000000    -3.215000000
H    -3.993000000    -2.761000000    -3.051000000
O    -2.150000000    -4.009000000    -2.155000000
H    -0.882000000    -2.483000000    -1.571000000
C     1.267000000    -4.496000000    -1.914000000
C     0.232000000    -5.481000000    -1.353000000
H     0.765000000    -6.323000000    -0.906000000
H    -0.352000000    -5.983000000    -2.127000000
C    -0.803000000    -4.866000000    -0.395000000
C    -2.091000000    -4.355000000    -0.837000000
C    -3.053000000    -3.845000000     0.032000000
H    -3.850000000    -3.218000000    -0.359000000
C    -2.737000000    -3.829000000     1.411000000
O    -3.458000000    -3.062000000     2.276000000
C    -3.036000000    -1.739000000     2.510000000
H    -2.249000000    -1.552000000     1.766000000
C    -4.168000000    -0.723000000     2.295000000
C    -3.879000000     0.550000000     2.693000000
H    -2.917000000     0.697000000     3.176000000
C    -5.382000000    -1.018000000     1.647000000
H    -5.546000000    -1.973000000     1.154000000
C    -6.252000000     0.022000000     1.407000000
O    -7.428000000    -0.219000000     0.737000000
C    -5.929000000     1.358000000     1.706000000
H    -6.524000000     2.231000000     1.451000000
C    -4.760000000     1.594000000     2.385000000
O    -4.494000000     2.885000000     2.504000000
C    -3.742000000     3.307000000     3.580000000
C    -2.465000000     3.855000000     3.335000000
H    -2.190000000     4.119000000     2.317000000
C    -4.245000000     3.155000000     4.907000000
H    -5.206000000     2.692000000     5.118000000
C    -3.437000000     3.541000000     5.965000000
H    -3.688000000     3.310000000     6.997000000
C    -2.184000000     4.134000000     5.784000000
H    -1.532000000     4.502000000     6.573000000
C    -1.739000000     4.253000000     4.458000000
O    -0.559000000     4.919000000     4.283000000
C     0.530000000     4.362000000     3.686000000
C     1.494000000     5.206000000     3.170000000
H     1.414000000     6.287000000     3.083000000
C     2.716000000     4.721000000     2.770000000
O     3.576000000     5.597000000     2.298000000
C     4.545000000     5.435000000     1.385000000
C     4.142000000     5.016000000     0.132000000
H     3.084000000     4.958000000    -0.109000000
C     5.877000000     5.667000000     1.674000000
H     6.108000000     5.906000000     2.708000000
C     6.903000000     5.539000000     0.721000000
H     7.965000000     5.700000000     0.883000000
C     6.491000000     5.072000000    -0.544000000
H     7.177000000     4.985000000    -1.384000000
C     5.120000000     4.875000000    -0.881000000
O     4.705000000     4.669000000    -2.233000000
C     4.265000000     3.434000000    -2.751000000
C     3.893000000     3.473000000    -4.096000000
H     3.882000000     4.369000000    -4.712000000
C     3.631000000     2.300000000    -4.711000000
O     3.112000000     2.343000000    -5.994000000
C     1.886000000     1.780000000    -6.204000000
C     0.820000000     1.927000000    -5.332000000
H     0.996000000     2.443000000    -4.391000000
C     1.622000000     1.312000000    -7.488000000
H     2.355000000     1.406000000    -8.284000000
C     0.353000000     0.853000000    -7.807000000
H     0.108000000     0.701000000    -8.855000000
C    -0.655000000     0.780000000    -6.808000000
H    -1.648000000     0.341000000    -6.865000000
C    -0.443000000     1.311000000    -5.552000000
O    -1.528000000     1.415000000    -4.597000000
C    -2.289000000     0.411000000    -4.120000000
C    -3.699000000     0.459000000    -4.084000000
H    -4.207000000     1.316000000    -4.519000000
C    -4.365000000    -0.708000000    -3.699000000
O    -5.724000000    -0.912000000    -3.840000000
C    -6.594000000    -1.220000000    -2.796000000
C    -7.648000000    -2.054000000    -3.081000000
H    -7.715000000    -2.540000000    -4.051000000
C    -8.580000000    -2.354000000    -2.103000000
H    -9.337000000    -3.092000000    -2.354000000
C    -8.395000000    -1.881000000    -0.780000000
H    -9.126000000    -2.150000000    -0.022000000
C    -7.415000000    -0.926000000    -0.477000000
C    -6.510000000    -0.609000000    -1.540000000
H    -5.825000000     0.222000000    -1.393000000
C    -1.574000000     1.522000000    -0.617000000
H    -2.658000000     1.450000000    -0.575000000
C    -0.919000000     0.337000000    -0.351000000
H    -1.544000000    -0.538000000    -0.193000000
C     0.454000000     0.309000000    -0.255000000
H     0.952000000    -0.619000000     0.056000000
C     1.127000000     1.505000000    -0.373000000
H     2.205000000     1.373000000    -0.334000000
C     0.532000000     2.750000000    -0.500000000
H     1.141000000     3.646000000    -0.415000000
C    -0.880000000     2.802000000    -0.691000000
C    -1.580000000     4.070000000    -1.067000000
O    -0.955000000     5.072000000    -1.191000000
O    -2.815000000     4.195000000    -1.006000000
O    -2.330000000     7.009000000    -3.130000000
H    -2.271000000     6.673000000    -2.236000000
H    -3.107000000     6.585000000    -3.494000000
O     1.304000000     9.304000000     1.472000000
H     0.751000000     9.646000000     0.770000000
H     1.395000000     8.372000000     1.273000000
O    -5.355000000     3.522000000    -0.518000000
H    -4.475000000     3.752000000    -0.817000000
H    -5.244000000     3.304000000     0.407000000
O    -3.221000000     6.782000000    -0.317000000
H    -3.079000000     5.840000000    -0.409000000
H    -3.625000000     6.880000000     0.546000000
O    -4.093000000     4.161000000    -3.363000000
H    -3.582000000     4.281000000    -2.563000000
H    -4.952000000     3.871000000    -3.058000000
O    -2.611000000     4.019000000    -5.803000000
H    -3.162000000     4.395000000    -5.117000000
H    -2.225000000     3.240000000    -5.401000000
O     0.163000000     7.108000000     0.334000000
H    -0.228000000     6.281000000     0.053000000
H    -0.523000000     7.759000000     0.187000000
O    -5.572000000     6.900000000    -1.999000000
H    -4.860000000     7.142000000    -1.405000000
H    -5.291000000     7.225000000    -2.854000000
O    -0.128000000     8.423000000    -3.296000000
H    -0.562000000     9.256000000    -3.483000000
H    -0.825000000     7.771000000    -3.360000000
O    -4.060000000     7.281000000     2.230000000
H    -3.597000000     8.114000000     2.143000000
H    -3.556000000     6.793000000     2.881000000
O     1.791000000     7.165000000    -1.811000000
H     1.512000000     6.609000000    -1.083000000
H     1.016000000     7.682000000    -2.028000000
O    -0.012000000     5.656000000    -6.023000000
H     0.364000000     5.316000000    -5.211000000
H    -0.860000000     5.219000000    -6.096000000
O    -6.060000000     3.407000000    -5.485000000
H    -6.967000000     3.629000000    -5.697000000
H    -5.670000000     4.235000000    -5.205000000
O    -5.587000000     6.400000000    -5.013000000
H    -4.986000000     7.108000000    -5.244000000
H    -6.366000000     6.564000000    -5.545000000
O    -6.331000000     6.087000000     0.744000000
H    -5.919000000     5.338000000     0.313000000
H    -5.629000000     6.480000000     1.262000000
O    -1.552000000     9.450000000     0.109000000
H    -2.170000000     9.600000000     0.824000000
H    -2.082000000     9.069000000    -0.590000000
O     0.475000000     8.126000000    -5.981000000
H     0.341000000     7.970000000    -5.047000000
H     0.203000000     7.310000000    -6.402000000
O    -7.397000000     5.046000000    -2.382000000
H    -6.894000000     5.729000000    -1.937000000
H    -6.773000000     4.331000000    -2.506000000
O     0.710000000     4.902000000    -3.611000000
H    -0.045000000     4.725000000    -3.050000000
H     1.028000000     5.758000000    -3.323000000
