215
-1429.48824
C     3.888000000     0.224000000    -3.183000000
H     3.341000000    -0.620000000    -3.595000000
C     4.378000000     0.258000000    -1.860000000
C     5.001000000     1.432000000    -1.362000000
H     5.459000000     1.424000000    -0.376000000
C     4.099000000    -0.939000000    -0.978000000
O     4.318000000    -2.254000000    -1.623000000
H     3.051000000    -0.873000000    -0.651000000
O     4.853000000    -0.920000000     0.185000000
C     4.278000000    -1.091000000     1.344000000
C     3.818000000     0.073000000     2.019000000
H     4.029000000     1.056000000     1.605000000
C     3.082000000    -0.020000000     3.200000000
O     2.653000000     1.200000000     3.794000000
C     2.821000000    -1.266000000     3.760000000
C     1.928000000    -1.440000000     5.019000000
H     2.212000000    -2.425000000     5.396000000
C     0.431000000    -1.368000000     4.774000000
C    -0.334000000    -2.432000000     4.471000000
H     0.218000000    -3.330000000     4.206000000
H     2.282000000    -0.746000000     5.784000000
C     3.216000000    -2.459000000     3.072000000
H     2.979000000    -3.429000000     3.502000000
C     3.912000000    -2.389000000     1.790000000
C     4.300000000    -3.611000000     0.968000000
H     4.332000000    -4.543000000     1.537000000
H     5.263000000    -3.460000000     0.477000000
C     3.289000000    -3.824000000    -0.139000000
C     2.123000000    -4.537000000     0.156000000
H     1.894000000    -4.846000000     1.172000000
C     3.400000000    -3.186000000    -1.350000000
C     2.346000000    -3.303000000    -2.299000000
H     2.383000000    -2.773000000    -3.247000000
C     1.205000000    -4.136000000    -2.030000000
O     0.173000000    -4.140000000    -2.917000000
C    -0.985000000    -3.265000000    -2.680000000
C    -1.360000000    -2.470000000    -3.945000000
C    -2.578000000    -1.960000000    -3.931000000
H    -3.165000000    -2.050000000    -3.021000000
C    -0.375000000    -2.177000000    -4.901000000
H     0.631000000    -2.563000000    -4.760000000
O    -2.051000000    -4.025000000    -2.089000000
H    -0.725000000    -2.416000000    -2.030000000
C     1.081000000    -4.728000000    -0.773000000
C    -0.155000000    -5.551000000    -0.427000000
H     0.140000000    -6.270000000     0.340000000
H    -0.550000000    -6.145000000    -1.253000000
C    -1.219000000    -4.585000000     0.141000000
C    -1.305000000    -4.427000000     1.507000000
H    -0.587000000    -4.882000000     2.184000000
C    -2.164000000    -4.012000000    -0.756000000
C    -3.210000000    -3.309000000    -0.128000000
H    -3.932000000    -2.749000000    -0.717000000
C    -3.307000000    -3.171000000     1.258000000
O    -4.252000000    -2.282000000     1.716000000
C    -3.671000000    -1.018000000     2.104000000
C    -4.564000000     0.136000000     1.581000000
C    -5.062000000     0.100000000     0.344000000
H    -4.862000000    -0.818000000    -0.203000000
C    -4.661000000     1.364000000     2.276000000
H    -4.199000000     1.455000000     3.256000000
O    -3.510000000    -0.943000000     3.514000000
H    -2.739000000    -1.055000000     1.520000000
C    -2.305000000    -3.741000000     2.104000000
C    -2.528000000    -3.517000000     3.625000000
H    -2.170000000    -4.380000000     4.190000000
H    -3.587000000    -3.317000000     3.805000000
C    -1.723000000    -2.332000000     4.107000000
C    -2.268000000    -1.070000000     3.986000000
C    -1.509000000     0.034000000     4.265000000
H    -2.008000000     0.986000000     4.103000000
C    -0.208000000    -0.111000000     4.675000000
O     0.523000000     1.017000000     4.792000000
C     1.281000000     1.436000000     3.627000000
H     0.875000000     0.811000000     2.818000000
C     1.121000000     2.957000000     3.373000000
C     2.099000000     3.632000000     2.651000000
H     2.930000000     3.081000000     2.218000000
C    -0.045000000     3.651000000     3.687000000
H    -0.912000000     3.175000000     4.138000000
C    -0.250000000     4.992000000     3.325000000
O    -1.380000000     5.697000000     3.771000000
C     0.792000000     5.655000000     2.729000000
H     0.762000000     6.719000000     2.508000000
C     1.939000000     5.002000000     2.312000000
O     2.802000000     5.787000000     1.530000000
C     4.069000000     5.345000000     1.179000000
C     4.215000000     4.487000000     0.076000000
H     3.313000000     4.144000000    -0.424000000
C     5.211000000     6.075000000     1.519000000
H     5.156000000     6.857000000     2.272000000
C     6.446000000     5.888000000     0.940000000
H     7.393000000     6.212000000     1.363000000
C     6.543000000     5.003000000    -0.100000000
H     7.449000000     4.985000000    -0.701000000
C     5.482000000     4.292000000    -0.545000000
O     5.660000000     3.678000000    -1.777000000
C     5.058000000     2.539000000    -2.203000000
C     4.688000000     2.442000000    -3.545000000
H     4.809000000     3.354000000    -4.124000000
C     4.131000000     1.324000000    -4.015000000
O     3.714000000     1.317000000    -5.355000000
C     3.277000000     0.261000000    -6.035000000
C     1.884000000     0.121000000    -6.170000000
H     1.221000000     0.870000000    -5.743000000
C     4.170000000    -0.799000000    -6.389000000
H     5.234000000    -0.578000000    -6.353000000
C     3.667000000    -1.884000000    -7.113000000
H     4.387000000    -2.616000000    -7.471000000
C     2.321000000    -1.947000000    -7.345000000
H     1.876000000    -2.713000000    -7.974000000
C     1.413000000    -0.972000000    -6.873000000
O     0.083000000    -1.118000000    -7.066000000
C    -0.779000000    -1.449000000    -6.044000000
C    -2.123000000    -1.090000000    -6.116000000
H    -2.388000000    -0.529000000    -7.009000000
C    -3.013000000    -1.296000000    -5.035000000
O    -4.310000000    -0.672000000    -5.081000000
C    -5.198000000    -0.858000000    -4.062000000
C    -5.496000000     0.223000000    -3.193000000
H    -4.942000000     1.157000000    -3.221000000
C    -5.821000000    -2.071000000    -3.861000000
H    -5.541000000    -2.924000000    -4.474000000
C    -6.792000000    -2.259000000    -2.930000000
H    -7.176000000    -3.206000000    -2.558000000
C    -7.027000000    -1.209000000    -2.034000000
H    -7.749000000    -1.393000000    -1.242000000
C    -6.441000000     0.045000000    -2.189000000
O    -6.670000000     0.962000000    -1.212000000
C    -5.783000000     1.190000000    -0.211000000
C    -5.929000000     2.353000000     0.507000000
H    -6.488000000     3.155000000     0.031000000
C    -5.346000000     2.438000000     1.740000000
O    -5.489000000     3.709000000     2.312000000
C    -4.716000000     4.247000000     3.337000000
C    -5.223000000     4.641000000     4.554000000
H    -6.280000000     4.449000000     4.715000000
C    -4.379000000     5.202000000     5.563000000
H    -4.803000000     5.425000000     6.538000000
C    -3.052000000     5.399000000     5.251000000
H    -2.386000000     5.851000000     5.981000000
C    -2.601000000     5.200000000     3.958000000
C    -3.385000000     4.600000000     2.973000000
H    -3.131000000     4.555000000     1.917000000
C    -1.275000000     1.246000000    -2.988000000
H    -0.841000000     0.881000000    -3.914000000
C    -0.924000000     0.899000000    -1.673000000
H    -0.222000000     0.087000000    -1.497000000
C    -1.563000000     1.429000000    -0.606000000
H    -1.333000000     1.138000000     0.391000000
C    -2.620000000     2.268000000    -0.887000000
H    -3.199000000     2.688000000    -0.068000000
C    -2.929000000     2.786000000    -2.155000000
H    -3.759000000     3.460000000    -2.352000000
C    -2.211000000     2.304000000    -3.222000000
C    -2.471000000     2.860000000    -4.621000000
O    -3.282000000     3.802000000    -4.684000000
O    -2.009000000     2.387000000    -5.650000000
O    -0.875000000     4.624000000     0.137000000
H    -0.644000000     4.289000000     1.003000000
H    -0.952000000     5.571000000     0.259000000
O    -6.671000000     7.166000000    -2.726000000
H    -6.523000000     6.612000000    -3.493000000
H    -7.428000000     7.704000000    -2.962000000
O     2.369000000     6.483000000    -6.725000000
H     3.237000000     6.132000000    -6.527000000
H     1.780000000     6.010000000    -6.137000000
O    -2.528000000     7.100000000    -6.352000000
H    -2.579000000     7.117000000    -5.396000000
H    -1.631000000     7.371000000    -6.548000000
O    -5.702000000     4.597000000    -3.982000000
H    -4.782000000     4.413000000    -4.171000000
H    -6.187000000     4.094000000    -4.636000000
O    -8.136000000     2.283000000    -7.881000000
H    -8.560000000     1.493000000    -7.547000000
H    -7.432000000     2.459000000    -7.258000000
O    -2.452000000     6.130000000    -3.210000000
H    -1.711000000     5.525000000    -3.185000000
H    -3.125000000     5.665000000    -3.706000000
O    -1.401000000     1.662000000    -8.436000000
H    -0.487000000     1.946000000    -8.419000000
H    -1.720000000     1.831000000    -7.550000000
O    -4.501000000     1.606000000    -6.714000000
H    -4.647000000     0.779000000    -6.255000000
H    -3.823000000     2.048000000    -6.201000000
O    -3.844000000     0.737000000    -9.267000000
H    -2.999000000     1.161000000    -9.120000000
H    -4.418000000     1.109000000    -8.597000000
O    -0.334000000     4.279000000    -2.562000000
H    -0.356000000     4.517000000    -1.635000000
H    -0.571000000     3.352000000    -2.578000000
O     1.748000000     5.238000000    -4.309000000
H     1.055000000     5.143000000    -3.656000000
H     1.455000000     4.705000000    -5.048000000
O    -4.732000000     6.809000000    -7.991000000
H    -4.123000000     6.896000000    -7.258000000
H    -4.177000000     6.848000000    -8.770000000
O     0.566000000     3.645000000    -6.103000000
H     0.876000000     3.485000000    -6.994000000
H    -0.354000000     3.381000000    -6.118000000
O    -0.571000000    -0.513000000    -9.884000000
H    -1.443000000    -0.624000000   -10.263000000
H    -0.724000000    -0.035000000    -9.068000000
O    -7.489000000     2.632000000    -5.177000000
H    -7.570000000     1.683000000    -5.080000000
H    -8.260000000     2.985000000    -4.733000000
O    -6.086000000     4.814000000    -9.618000000
H    -6.538000000     5.655000000    -9.553000000
H    -5.420000000     4.846000000    -8.931000000
O    -2.206000000     4.517000000    -7.585000000
H    -2.394000000     3.953000000    -6.835000000
H    -2.382000000     5.403000000    -7.269000000
O    -1.652000000     4.789000000   -10.242000000
H    -2.033000000     4.657000000    -9.373000000
H    -1.484000000     3.905000000   -10.567000000
