215
-1470.50294
C     1.072000000     4.678000000     2.854000000
H     2.106000000     4.529000000     2.554000000
C     0.465000000     3.625000000     3.527000000
C    -0.929000000     3.816000000     3.871000000
H    -1.530000000     3.060000000     4.369000000
C     1.269000000     2.318000000     3.810000000
O     2.715000000     2.595000000     3.972000000
H     1.111000000     1.747000000     2.883000000
O     0.642000000     1.620000000     4.923000000
C     0.491000000     0.259000000     4.702000000
C    -0.814000000    -0.176000000     4.574000000
H    -1.709000000     0.438000000     4.633000000
C    -1.039000000    -1.534000000     4.216000000
O    -2.335000000    -1.788000000     3.748000000
C     0.015000000    -2.492000000     4.198000000
C    -0.181000000    -3.962000000     3.808000000
H     0.689000000    -4.533000000     4.140000000
C    -0.183000000    -4.152000000     2.285000000
C     0.980000000    -4.545000000     1.627000000
H     1.862000000    -4.693000000     2.245000000
H    -1.149000000    -4.327000000     4.156000000
C     1.275000000    -1.992000000     4.408000000
H     2.156000000    -2.623000000     4.324000000
C     1.488000000    -0.663000000     4.697000000
C     2.900000000    -0.181000000     4.861000000
H     3.565000000    -0.917000000     5.317000000
H     2.891000000     0.636000000     5.585000000
C     3.423000000     0.329000000     3.543000000
C     3.973000000    -0.619000000     2.698000000
H     3.958000000    -1.665000000     2.995000000
C     3.415000000     1.698000000     3.204000000
C     3.798000000     2.004000000     1.884000000
H     3.734000000     3.009000000     1.474000000
C     4.310000000     1.003000000     1.028000000
O     4.583000000     1.396000000    -0.315000000
C     3.733000000     0.816000000    -1.325000000
C     3.365000000     1.894000000    -2.345000000
C     3.456000000     1.702000000    -3.726000000
H     3.897000000     0.748000000    -4.004000000
C     2.850000000     3.123000000    -1.903000000
H     2.793000000     3.443000000    -0.865000000
O     4.399000000    -0.305000000    -1.956000000
H     2.824000000     0.501000000    -0.792000000
C     4.458000000    -0.310000000     1.480000000
C     5.140000000    -1.398000000     0.678000000
H     5.557000000    -2.149000000     1.352000000
H     6.030000000    -1.008000000     0.182000000
C     4.225000000    -2.062000000    -0.348000000
C     3.765000000    -3.326000000     0.004000000
H     3.932000000    -3.811000000     0.963000000
C     4.041000000    -1.571000000    -1.629000000
C     3.229000000    -2.254000000    -2.499000000
H     3.007000000    -1.783000000    -3.453000000
C     2.645000000    -3.445000000    -2.150000000
O     1.707000000    -4.065000000    -2.999000000
C     0.287000000    -3.777000000    -2.632000000
C    -0.664000000    -3.373000000    -3.758000000
C    -0.111000000    -2.499000000    -4.671000000
H     0.943000000    -2.243000000    -4.753000000
C    -2.029000000    -3.625000000    -3.663000000
H    -2.370000000    -4.239000000    -2.833000000
O    -0.218000000    -4.793000000    -1.809000000
H     0.349000000    -2.945000000    -1.916000000
C     2.947000000    -3.994000000    -0.876000000
C     2.242000000    -5.237000000    -0.411000000
H     2.838000000    -5.846000000     0.273000000
H     2.002000000    -5.935000000    -1.215000000
C     1.003000000    -4.803000000     0.272000000
C    -0.161000000    -4.657000000    -0.458000000
C    -1.332000000    -4.291000000     0.169000000
H    -2.209000000    -4.127000000    -0.451000000
C    -1.317000000    -3.977000000     1.492000000
O    -2.435000000    -3.318000000     1.972000000
C    -2.514000000    -1.896000000     2.352000000
H    -1.724000000    -1.307000000     1.862000000
C    -3.860000000    -1.323000000     1.883000000
C    -4.338000000    -0.182000000     2.443000000
H    -3.787000000     0.364000000     3.204000000
C    -4.663000000    -1.955000000     0.904000000
H    -4.182000000    -2.738000000     0.323000000
C    -5.852000000    -1.378000000     0.473000000
O    -6.634000000    -1.951000000    -0.513000000
C    -6.315000000    -0.212000000     1.116000000
H    -7.326000000     0.133000000     0.912000000
C    -5.537000000     0.392000000     2.058000000
O    -6.013000000     1.530000000     2.585000000
C    -5.398000000     2.324000000     3.555000000
C    -4.667000000     3.522000000     3.199000000
H    -4.734000000     3.886000000     2.177000000
C    -5.422000000     1.860000000     4.866000000
H    -5.835000000     0.903000000     5.173000000
C    -4.676000000     2.551000000     5.805000000
H    -4.582000000     2.126000000     6.801000000
C    -3.875000000     3.664000000     5.475000000
H    -3.283000000     4.179000000     6.227000000
C    -3.823000000     4.067000000     4.143000000
O    -2.957000000     5.161000000     3.819000000
C    -1.587000000     5.012000000     3.613000000
C    -0.896000000     6.082000000     3.034000000
H    -1.443000000     6.987000000     2.785000000
C     0.486000000     5.928000000     2.609000000
O     1.199000000     6.931000000     2.034000000
C     1.798000000     6.880000000     0.769000000
C     1.189000000     6.078000000    -0.220000000
H     0.303000000     5.478000000    -0.027000000
C     2.966000000     7.542000000     0.492000000
H     3.381000000     8.148000000     1.293000000
C     3.581000000     7.483000000    -0.771000000
H     4.454000000     8.101000000    -0.968000000
C     3.010000000     6.712000000    -1.770000000
H     3.437000000     6.599000000    -2.763000000
C     1.880000000     5.975000000    -1.481000000
O     1.431000000     5.070000000    -2.425000000
C     2.266000000     4.003000000    -2.813000000
C     2.412000000     3.777000000    -4.206000000
H     1.814000000     4.375000000    -4.888000000
C     3.024000000     2.623000000    -4.646000000
O     3.033000000     2.419000000    -5.993000000
C     2.563000000     1.197000000    -6.475000000
C     1.257000000     0.823000000    -6.148000000
H     0.563000000     1.535000000    -5.708000000
C     3.335000000     0.416000000    -7.316000000
H     4.323000000     0.746000000    -7.629000000
C     2.935000000    -0.841000000    -7.670000000
H     3.634000000    -1.513000000    -8.162000000
C     1.653000000    -1.300000000    -7.309000000
H     1.258000000    -2.262000000    -7.625000000
C     0.780000000    -0.431000000    -6.599000000
O    -0.537000000    -0.822000000    -6.357000000
C    -0.957000000    -1.857000000    -5.564000000
C    -2.313000000    -2.127000000    -5.509000000
H    -3.054000000    -1.702000000    -6.181000000
C    -2.838000000    -2.948000000    -4.629000000
O    -4.268000000    -3.113000000    -4.560000000
C    -4.978000000    -3.452000000    -3.445000000
C    -5.352000000    -4.793000000    -3.255000000
H    -4.942000000    -5.536000000    -3.934000000
C    -6.092000000    -5.149000000    -2.175000000
H    -6.349000000    -6.198000000    -2.055000000
C    -6.509000000    -4.221000000    -1.227000000
H    -7.146000000    -4.435000000    -0.373000000
C    -6.110000000    -2.859000000    -1.415000000
C    -5.376000000    -2.517000000    -2.565000000
H    -5.067000000    -1.491000000    -2.748000000
C    -1.596000000     2.318000000     0.799000000
H    -2.321000000     2.979000000     1.265000000
C    -0.934000000     1.300000000     1.534000000
H    -1.342000000     1.201000000     2.536000000
C    -0.105000000     0.392000000     0.938000000
H     0.389000000    -0.344000000     1.548000000
C     0.218000000     0.541000000    -0.396000000
H     1.002000000    -0.051000000    -0.863000000
C    -0.467000000     1.520000000    -1.162000000
H    -0.334000000     1.590000000    -2.239000000
C    -1.329000000     2.388000000    -0.564000000
C    -2.146000000     3.406000000    -1.371000000
O    -2.622000000     3.102000000    -2.434000000
O    -2.270000000     4.495000000    -0.913000000
O    -3.493000000     9.766000000    -2.914000000
H    -4.250000000     9.191000000    -2.799000000
H    -2.766000000     9.171000000    -3.095000000
O    -6.538000000     1.075000000    -3.171000000
H    -7.051000000     0.676000000    -2.469000000
H    -6.985000000     1.902000000    -3.354000000
O    -2.421000000     3.106000000    -6.992000000
H    -1.883000000     3.677000000    -7.539000000
H    -1.951000000     3.060000000    -6.159000000
O    -6.807000000     5.774000000     0.907000000
H    -5.862000000     5.862000000     1.032000000
H    -6.903000000     5.020000000     0.325000000
O    -2.540000000     0.303000000    -2.884000000
H    -2.394000000     1.248000000    -2.847000000
H    -2.154000000    -0.030000000    -2.073000000
O    -1.434000000     3.895000000    -4.481000000
H    -1.898000000     3.436000000    -3.781000000
H    -0.908000000     4.555000000    -4.028000000
O    -0.740000000     9.391000000    -1.502000000
H    -0.940000000     8.455000000    -1.496000000
H    -1.251000000     9.750000000    -0.776000000
O    -6.473000000     3.557000000    -0.771000000
H    -5.566000000     3.336000000    -0.986000000
H    -6.936000000     3.506000000    -1.608000000
O    -4.047000000     5.250000000    -5.625000000
H    -3.186000000     4.834000000    -5.580000000
H    -4.596000000     4.729000000    -5.039000000
O    -5.827000000     8.206000000    -1.932000000
H    -6.766000000     8.076000000    -1.799000000
H    -5.471000000     7.320000000    -2.009000000
O    -3.900000000     5.903000000     0.789000000
H    -3.270000000     5.492000000     0.197000000
H    -3.631000000     5.617000000     1.661000000
O    -2.795000000     7.666000000    -5.260000000
H    -2.636000000     7.887000000    -6.178000000
H    -3.357000000     6.893000000    -5.294000000
O    -4.419000000     0.357000000    -4.963000000
H    -3.845000000     0.313000000    -4.198000000
H    -5.304000000     0.317000000    -4.602000000
O    -3.986000000     8.623000000     0.092000000
H    -3.911000000     7.732000000     0.434000000
H    -4.776000000     8.606000000    -0.449000000
O    -4.800000000     3.315000000    -3.885000000
H    -5.114000000     2.447000000    -4.137000000
H    -4.004000000     3.145000000    -3.382000000
O    -1.671000000     6.622000000    -2.046000000
H    -2.533000000     6.894000000    -2.360000000
H    -1.824000000     5.774000000    -1.628000000
O    -8.099000000     3.289000000    -2.706000000
H    -8.306000000     4.006000000    -3.306000000
H    -8.916000000     2.797000000    -2.629000000
O    -4.569000000     5.742000000    -2.411000000
H    -5.358000000     5.213000000    -2.536000000
H    -3.881000000     5.103000000    -2.223000000
O    -0.094000000     7.401000000    -4.430000000
H    -0.816000000     7.788000000    -4.926000000
H    -0.505000000     7.063000000    -3.634000000
