215
-1447.33014
C    -1.266000000     4.666000000     2.726000000
H    -0.240000000     4.997000000     2.583000000
C    -1.548000000     3.406000000     3.237000000
C    -2.862000000     2.973000000     3.232000000
H    -3.064000000     2.061000000     3.788000000
C    -0.418000000     2.538000000     3.701000000
O     0.723000000     3.274000000     4.090000000
H    -0.066000000     1.989000000     2.815000000
O    -0.754000000     1.607000000     4.742000000
C    -0.295000000     0.330000000     4.608000000
C    -1.235000000    -0.631000000     4.380000000
H    -2.283000000    -0.348000000     4.342000000
C    -0.858000000    -1.991000000     4.238000000
O    -1.763000000    -2.938000000     3.767000000
C     0.439000000    -2.314000000     4.302000000
C     0.935000000    -3.685000000     4.028000000
H     1.849000000    -3.736000000     4.624000000
C     1.267000000    -3.990000000     2.548000000
C     2.594000000    -3.674000000     2.044000000
H     3.383000000    -3.377000000     2.730000000
H     0.128000000    -4.379000000     4.270000000
C     1.441000000    -1.327000000     4.521000000
H     2.437000000    -1.750000000     4.414000000
C     1.059000000    -0.017000000     4.727000000
C     2.088000000     1.072000000     5.130000000
H     2.972000000     0.622000000     5.585000000
H     1.745000000     1.705000000     5.951000000
C     2.590000000     1.778000000     3.936000000
C     3.669000000     1.313000000     3.225000000
H     4.180000000     0.408000000     3.543000000
C     1.919000000     2.899000000     3.481000000
C     2.295000000     3.513000000     2.281000000
H     1.767000000     4.416000000     1.986000000
C     3.211000000     2.931000000     1.474000000
O     3.427000000     3.516000000     0.271000000
C     2.995000000     2.685000000    -0.891000000
C     2.286000000     3.385000000    -1.953000000
C     2.390000000     2.970000000    -3.294000000
H     3.139000000     2.227000000    -3.554000000
C     1.329000000     4.409000000    -1.690000000
H     1.039000000     4.566000000    -0.655000000
O     4.128000000     1.789000000    -1.438000000
H     2.303000000     1.978000000    -0.409000000
C     3.994000000     1.885000000     1.996000000
C     5.165000000     1.220000000     1.222000000
H     5.954000000     0.846000000     1.877000000
H     5.597000000     2.088000000     0.718000000
C     4.777000000     0.174000000     0.193000000
C     4.811000000    -1.120000000     0.534000000
H     5.150000000    -1.361000000     1.539000000
C     4.371000000     0.515000000    -1.101000000
C     3.959000000    -0.449000000    -2.026000000
H     3.588000000    -0.128000000    -2.996000000
C     4.022000000    -1.805000000    -1.672000000
O     3.556000000    -2.764000000    -2.581000000
C     2.178000000    -3.115000000    -2.304000000
C     1.273000000    -3.223000000    -3.539000000
C     1.389000000    -2.266000000    -4.507000000
H     2.295000000    -1.680000000    -4.374000000
C     0.090000000    -3.999000000    -3.559000000
H    -0.144000000    -4.619000000    -2.698000000
O     2.009000000    -4.342000000    -1.515000000
H     1.693000000    -2.289000000    -1.763000000
C     4.477000000    -2.178000000    -0.352000000
C     4.287000000    -3.552000000     0.234000000
H     5.021000000    -3.760000000     1.015000000
H     4.577000000    -4.246000000    -0.557000000
C     2.878000000    -3.808000000     0.705000000
C     1.840000000    -4.165000000    -0.146000000
C     0.568000000    -4.300000000     0.332000000
H    -0.239000000    -4.654000000    -0.303000000
C     0.284000000    -4.285000000     1.656000000
O    -0.998000000    -4.386000000     2.005000000
C    -1.781000000    -3.195000000     2.311000000
H    -1.287000000    -2.336000000     1.833000000
C    -3.139000000    -3.240000000     1.660000000
C    -4.044000000    -2.198000000     1.862000000
H    -3.876000000    -1.377000000     2.555000000
C    -3.470000000    -4.131000000     0.573000000
H    -2.770000000    -4.945000000     0.405000000
C    -4.648000000    -4.082000000    -0.170000000
O    -5.015000000    -5.050000000    -1.082000000
C    -5.552000000    -3.086000000     0.156000000
H    -6.524000000    -3.014000000    -0.326000000
C    -5.256000000    -2.156000000     1.173000000
O    -6.231000000    -1.219000000     1.479000000
C    -6.001000000    -0.275000000     2.450000000
C    -5.818000000     1.107000000     2.113000000
H    -5.642000000     1.368000000     1.072000000
C    -6.169000000    -0.663000000     3.733000000
H    -6.289000000    -1.715000000     3.980000000
C    -6.001000000     0.296000000     4.777000000
H    -6.128000000     0.021000000     5.821000000
C    -5.749000000     1.648000000     4.460000000
H    -5.552000000     2.385000000     5.234000000
C    -5.609000000     2.051000000     3.123000000
O    -5.272000000     3.354000000     2.818000000
C    -3.946000000     3.765000000     2.858000000
C    -3.690000000     5.022000000     2.386000000
H    -4.579000000     5.575000000     2.091000000
C    -2.338000000     5.469000000     2.330000000
O    -2.139000000     6.662000000     1.805000000
C    -1.062000000     6.947000000     0.967000000
C    -1.071000000     6.318000000    -0.287000000
H    -1.755000000     5.525000000    -0.580000000
C    -0.135000000     7.935000000     1.233000000
H    -0.063000000     8.435000000     2.196000000
C     0.787000000     8.382000000     0.277000000
H     1.522000000     9.074000000     0.680000000
C     0.760000000     7.775000000    -0.998000000
H     1.393000000     8.036000000    -1.842000000
C    -0.167000000     6.789000000    -1.245000000
O    -0.096000000     6.118000000    -2.498000000
C     0.574000000     5.009000000    -2.702000000
C     0.871000000     4.643000000    -4.003000000
H     0.489000000     5.297000000    -4.783000000
C     1.734000000     3.598000000    -4.328000000
O     1.920000000     3.258000000    -5.645000000
C     2.147000000     2.016000000    -6.220000000
C     1.259000000     0.950000000    -6.053000000
H     0.481000000     1.035000000    -5.298000000
C     3.353000000     1.783000000    -6.884000000
H     3.977000000     2.649000000    -7.090000000
C     3.551000000     0.735000000    -7.699000000
H     4.454000000     0.567000000    -8.280000000
C     2.641000000    -0.355000000    -7.519000000
H     2.849000000    -1.259000000    -8.085000000
C     1.504000000    -0.258000000    -6.690000000
O     0.634000000    -1.345000000    -6.653000000
C     0.532000000    -2.213000000    -5.618000000
C    -0.563000000    -3.092000000    -5.651000000
H    -1.130000000    -3.127000000    -6.578000000
C    -0.835000000    -3.906000000    -4.554000000
O    -1.941000000    -4.703000000    -4.662000000
C    -2.564000000    -5.414000000    -3.731000000
C    -2.323000000    -6.754000000    -3.689000000
H    -1.765000000    -7.277000000    -4.461000000
C    -3.006000000    -7.592000000    -2.792000000
H    -2.868000000    -8.669000000    -2.840000000
C    -3.855000000    -7.012000000    -1.809000000
H    -4.466000000    -7.597000000    -1.127000000
C    -4.011000000    -5.651000000    -1.812000000
C    -3.357000000    -4.906000000    -2.747000000
H    -3.382000000    -3.819000000    -2.779000000
C    -1.908000000     0.959000000    -0.011000000
H    -2.861000000     1.328000000     0.358000000
C    -1.086000000     0.156000000     0.726000000
H    -1.305000000    -0.328000000     1.674000000
C     0.089000000    -0.207000000     0.109000000
H     0.741000000    -0.878000000     0.675000000
C     0.420000000     0.238000000    -1.182000000
H     1.388000000    -0.063000000    -1.574000000
C    -0.431000000     1.044000000    -1.857000000
H    -0.148000000     1.378000000    -2.852000000
C    -1.647000000     1.463000000    -1.284000000
C    -2.642000000     2.202000000    -2.160000000
O    -2.336000000     2.568000000    -3.290000000
O    -3.784000000     2.315000000    -1.718000000
O    -2.971000000     4.935000000    -4.609000000
H    -2.853000000     4.531000000    -5.468000000
H    -2.614000000     4.297000000    -3.992000000
O    -5.858000000     5.284000000    -3.884000000
H    -4.944000000     5.567000000    -3.909000000
H    -5.943000000     4.821000000    -3.051000000
O     0.015000000     4.136000000    -8.124000000
H     0.602000000     4.191000000    -7.370000000
H    -0.374000000     3.263000000    -8.061000000
O    -8.442000000     5.657000000    -1.788000000
H    -8.253000000     6.452000000    -2.286000000
H    -7.683000000     5.547000000    -1.215000000
O    -7.680000000     0.768000000    -1.112000000
H    -6.830000000     0.336000000    -1.021000000
H    -7.468000000     1.650000000    -1.418000000
O    -3.938000000    -1.837000000    -4.610000000
H    -3.076000000    -1.896000000    -4.199000000
H    -4.556000000    -1.940000000    -3.886000000
O    -5.032000000     0.002000000    -1.267000000
H    -4.484000000    -0.722000000    -1.571000000
H    -4.489000000     0.780000000    -1.389000000
O    -1.537000000     2.679000000    -5.809000000
H    -1.747000000     2.723000000    -4.876000000
H    -2.196000000     2.090000000    -6.176000000
O    -1.821000000     7.596000000    -4.352000000
H    -2.252000000     6.808000000    -4.683000000
H    -0.886000000     7.410000000    -4.434000000
O    -6.098000000     0.343000000    -7.201000000
H    -6.693000000     0.562000000    -6.483000000
H    -6.376000000     0.907000000    -7.923000000
O    -3.293000000     0.460000000    -6.301000000
H    -3.649000000    -0.292000000    -5.828000000
H    -3.979000000     0.697000000    -6.925000000
O    -6.255000000     5.959000000    -0.200000000
H    -6.625000000     6.127000000     0.667000000
H    -5.575000000     6.624000000    -0.303000000
O    -2.344000000    -1.511000000    -1.942000000
H    -2.214000000    -2.122000000    -1.216000000
H    -1.929000000    -0.700000000    -1.650000000
O    -6.056000000    -1.972000000    -2.839000000
H    -6.107000000    -1.079000000    -2.499000000
H    -6.651000000    -2.475000000    -2.283000000
O    -6.602000000     4.048000000    -6.217000000
H    -6.069000000     3.298000000    -5.953000000
H    -6.522000000     4.666000000    -5.490000000
O    -1.245000000     0.201000000    -8.500000000
H    -1.189000000    -0.392000000    -7.751000000
H    -2.083000000     0.651000000    -8.388000000
O    -5.180000000     2.241000000    -4.298000000
H    -4.325000000     2.594000000    -4.545000000
H    -5.167000000     2.228000000    -3.341000000
O    -7.487000000     1.061000000    -4.851000000
H    -8.147000000     1.357000000    -4.225000000
H    -6.695000000     1.541000000    -4.609000000
O    -6.272000000     3.171000000    -0.855000000
H    -5.919000000     3.852000000    -0.282000000
H    -5.502000000     2.797000000    -1.283000000
