215
-1451.13355
C    -0.961000000     4.443000000     1.951000000
H    -0.023000000     4.285000000     1.424000000
C    -1.279000000     3.520000000     2.955000000
C    -2.603000000     3.367000000     3.277000000
H    -2.867000000     2.732000000     4.119000000
C    -0.196000000     2.552000000     3.470000000
O     1.068000000     3.162000000     3.877000000
H    -0.074000000     1.965000000     2.548000000
O    -0.640000000     1.760000000     4.625000000
C    -0.436000000     0.481000000     4.689000000
C    -1.489000000    -0.303000000     4.196000000
H    -2.456000000     0.163000000     4.024000000
C    -1.335000000    -1.703000000     4.069000000
O    -2.356000000    -2.519000000     3.627000000
C    -0.097000000    -2.344000000     4.319000000
C     0.161000000    -3.826000000     4.148000000
H     0.987000000    -4.199000000     4.757000000
C     0.454000000    -4.156000000     2.704000000
C     1.771000000    -4.076000000     2.176000000
H     2.613000000    -4.009000000     2.860000000
H    -0.767000000    -4.368000000     4.345000000
C     0.999000000    -1.523000000     4.587000000
H     1.943000000    -2.050000000     4.702000000
C     0.802000000    -0.135000000     4.913000000
C     2.019000000     0.731000000     5.347000000
H     2.705000000     0.107000000     5.923000000
H     1.656000000     1.427000000     6.106000000
C     2.752000000     1.375000000     4.167000000
C     3.792000000     0.665000000     3.494000000
H     4.080000000    -0.290000000     3.926000000
C     2.275000000     2.591000000     3.558000000
C     2.827000000     2.975000000     2.357000000
H     2.335000000     3.717000000     1.732000000
C     3.788000000     2.247000000     1.682000000
O     4.237000000     2.638000000     0.478000000
C     3.629000000     2.039000000    -0.683000000
C     3.240000000     2.985000000    -1.772000000
C     2.878000000     2.446000000    -3.038000000
H     2.883000000     1.365000000    -3.154000000
C     3.117000000     4.317000000    -1.563000000
H     3.272000000     4.780000000    -0.592000000
O     4.625000000     1.134000000    -1.199000000
H     2.713000000     1.461000000    -0.487000000
C     4.346000000     1.119000000     2.290000000
C     5.391000000     0.370000000     1.494000000
H     6.057000000    -0.179000000     2.163000000
H     6.085000000     1.016000000     0.954000000
C     4.764000000    -0.586000000     0.501000000
C     4.450000000    -1.928000000     0.923000000
H     4.631000000    -2.265000000     1.940000000
C     4.426000000    -0.162000000    -0.768000000
C     3.844000000    -1.018000000    -1.680000000
H     3.600000000    -0.655000000    -2.675000000
C     3.472000000    -2.289000000    -1.297000000
O     2.812000000    -3.099000000    -2.194000000
C     1.352000000    -3.256000000    -2.084000000
C     0.686000000    -3.161000000    -3.446000000
C     1.113000000    -2.229000000    -4.371000000
H     1.922000000    -1.534000000    -4.159000000
C    -0.468000000    -3.857000000    -3.728000000
H    -0.931000000    -4.426000000    -2.926000000
O     1.083000000    -4.538000000    -1.458000000
H     0.995000000    -2.370000000    -1.538000000
C     3.825000000    -2.790000000    -0.009000000
C     3.492000000    -4.193000000     0.452000000
H     4.102000000    -4.449000000     1.320000000
H     3.839000000    -4.877000000    -0.326000000
C     2.041000000    -4.241000000     0.819000000
C     0.951000000    -4.464000000    -0.079000000
C    -0.332000000    -4.567000000     0.432000000
H    -1.172000000    -4.715000000    -0.243000000
C    -0.598000000    -4.415000000     1.819000000
O    -1.854000000    -4.292000000     2.126000000
C    -2.316000000    -2.947000000     2.276000000
H    -1.567000000    -2.307000000     1.788000000
C    -3.557000000    -2.704000000     1.501000000
C    -4.365000000    -1.623000000     1.815000000
H    -4.140000000    -0.867000000     2.562000000
C    -3.868000000    -3.593000000     0.395000000
H    -3.265000000    -4.398000000    -0.018000000
C    -4.961000000    -3.246000000    -0.387000000
O    -5.426000000    -3.942000000    -1.505000000
C    -5.685000000    -2.131000000    -0.078000000
H    -6.592000000    -1.990000000    -0.659000000
C    -5.454000000    -1.334000000     1.036000000
O    -6.270000000    -0.249000000     1.256000000
C    -6.046000000     0.538000000     2.411000000
C    -5.609000000     1.811000000     2.167000000
H    -5.334000000     1.984000000     1.129000000
C    -6.468000000     0.166000000     3.710000000
H    -6.923000000    -0.808000000     3.873000000
C    -6.301000000     1.082000000     4.783000000
H    -6.641000000     0.817000000     5.781000000
C    -5.923000000     2.464000000     4.498000000
H    -5.819000000     3.142000000     5.341000000
C    -5.461000000     2.754000000     3.221000000
O    -4.944000000     3.960000000     2.913000000
C    -3.639000000     4.136000000     2.637000000
C    -3.287000000     5.053000000     1.669000000
H    -4.032000000     5.590000000     1.088000000
C    -1.977000000     5.214000000     1.404000000
O    -1.710000000     5.953000000     0.246000000
C    -0.460000000     6.571000000     0.012000000
C     0.265000000     6.256000000    -1.180000000
H     0.015000000     5.380000000    -1.774000000
C    -0.070000000     7.643000000     0.729000000
H    -0.633000000     7.919000000     1.617000000
C     1.014000000     8.433000000     0.407000000
H     1.344000000     9.166000000     1.139000000
C     1.766000000     8.074000000    -0.684000000
H     2.734000000     8.539000000    -0.848000000
C     1.398000000     6.994000000    -1.437000000
O     2.291000000     6.564000000    -2.411000000
C     2.541000000     5.171000000    -2.553000000
C     2.317000000     4.638000000    -3.832000000
H     1.973000000     5.355000000    -4.573000000
C     2.437000000     3.311000000    -4.057000000
O     1.954000000     2.933000000    -5.292000000
C     2.447000000     1.795000000    -5.836000000
C     1.586000000     0.713000000    -5.990000000
H     0.536000000     0.849000000    -5.740000000
C     3.710000000     1.656000000    -6.279000000
H     4.489000000     2.389000000    -6.088000000
C     4.179000000     0.426000000    -6.912000000
H     5.210000000     0.374000000    -7.252000000
C     3.276000000    -0.586000000    -7.086000000
H     3.648000000    -1.494000000    -7.554000000
C     1.911000000    -0.431000000    -6.673000000
O     0.996000000    -1.455000000    -6.722000000
C     0.535000000    -2.209000000    -5.652000000
C    -0.609000000    -2.996000000    -5.871000000
H    -1.039000000    -2.920000000    -6.867000000
C    -1.101000000    -3.867000000    -4.917000000
O    -2.372000000    -4.301000000    -5.162000000
C    -3.032000000    -4.917000000    -4.094000000
C    -2.774000000    -6.212000000    -3.830000000
H    -1.946000000    -6.717000000    -4.321000000
C    -3.550000000    -6.843000000    -2.862000000
H    -3.382000000    -7.888000000    -2.617000000
C    -4.462000000    -6.113000000    -2.119000000
H    -5.046000000    -6.632000000    -1.363000000
C    -4.618000000    -4.764000000    -2.274000000
C    -3.890000000    -4.169000000    -3.338000000
H    -3.994000000    -3.110000000    -3.560000000
C    -2.178000000     1.830000000    -1.184000000
H    -2.921000000     2.242000000    -0.506000000
C    -1.510000000     0.632000000    -0.910000000
H    -1.803000000     0.102000000    -0.008000000
C    -0.514000000     0.179000000    -1.719000000
H    -0.009000000    -0.794000000    -1.452000000
C    -0.086000000     0.981000000    -2.750000000
H     0.823000000     0.668000000    -3.259000000
C    -0.836000000     2.105000000    -3.174000000
H    -0.543000000     2.654000000    -4.064000000
C    -1.883000000     2.552000000    -2.336000000
C    -2.828000000     3.674000000    -2.734000000
O    -2.693000000     4.206000000    -3.826000000
O    -3.894000000     3.835000000    -2.090000000
O    -2.259000000     3.524000000    -6.321000000
H    -2.504000000     2.599000000    -6.302000000
H    -2.303000000     3.802000000    -5.406000000
O    -3.631000000     7.919000000    -3.506000000
H    -4.258000000     7.304000000    -3.886000000
H    -3.572000000     7.663000000    -2.585000000
O    -0.197000000     4.069000000    -8.362000000
H     0.059000000     4.701000000    -7.690000000
H    -0.834000000     3.502000000    -7.927000000
O    -7.434000000     6.484000000    -2.254000000
H    -6.916000000     7.013000000    -1.648000000
H    -6.785000000     6.037000000    -2.797000000
O    -7.837000000     4.773000000     1.402000000
H    -7.151000000     4.800000000     0.735000000
H    -7.940000000     5.684000000     1.677000000
O    -5.122000000     1.695000000    -2.793000000
H    -4.658000000     2.382000000    -2.316000000
H    -5.259000000     2.060000000    -3.667000000
O    -1.175000000     6.426000000    -4.558000000
H    -1.783000000     6.993000000    -4.084000000
H    -1.541000000     5.547000000    -4.463000000
O    -6.974000000     3.936000000    -5.026000000
H    -7.851000000     3.584000000    -4.872000000
H    -6.680000000     3.502000000    -5.827000000
O    -5.823000000     7.723000000    -0.314000000
H    -5.953000000     8.155000000     0.531000000
H    -4.943000000     7.985000000    -0.584000000
O    -3.397000000    -0.518000000    -3.238000000
H    -4.043000000     0.000000000    -2.758000000
H    -2.635000000    -0.546000000    -2.658000000
O    -4.233000000     5.263000000    -7.416000000
H    -3.623000000     5.651000000    -8.043000000
H    -3.676000000     4.764000000    -6.818000000
O    -3.536000000     1.022000000    -5.508000000
H    -3.288000000     0.103000000    -5.611000000
H    -3.760000000     1.107000000    -4.581000000
O    -5.617000000     2.751000000    -7.171000000
H    -4.734000000     2.430000000    -6.987000000
H    -5.513000000     3.307000000    -7.943000000
O    -5.122000000     5.580000000    -4.108000000
H    -4.238000000     5.236000000    -3.983000000
H    -5.650000000     4.811000000    -4.322000000
O    -7.881000000     6.563000000    -5.577000000
H    -8.370000000     6.133000000    -6.279000000
H    -7.260000000     5.900000000    -5.277000000
O     0.494000000     6.462000000    -6.732000000
H    -0.179000000     6.337000000    -6.063000000
H     0.138000000     7.141000000    -7.306000000
O    -7.370000000     2.665000000    -1.148000000
H    -6.864000000     2.187000000    -1.806000000
H    -6.723000000     3.204000000    -0.694000000
O    -2.914000000     8.412000000    -0.812000000
H    -1.996000000     8.143000000    -0.776000000
H    -2.881000000     9.364000000    -0.908000000
O    -5.787000000     4.596000000    -0.635000000
H    -5.667000000     5.543000000    -0.701000000
H    -5.194000000     4.233000000    -1.294000000
