215
-1449.07443
C    -1.390000000     4.297000000     2.266000000
H    -0.361000000     4.608000000     2.103000000
C    -1.692000000     3.094000000     2.910000000
C    -3.055000000     2.825000000     3.121000000
H    -3.270000000     1.842000000     3.533000000
C    -0.609000000     2.217000000     3.411000000
O     0.521000000     2.989000000     3.753000000
H    -0.318000000     1.460000000     2.668000000
O    -1.001000000     1.612000000     4.634000000
C    -0.617000000     0.279000000     4.672000000
C    -1.660000000    -0.624000000     4.301000000
H    -2.691000000    -0.336000000     4.114000000
C    -1.365000000    -1.988000000     4.086000000
O    -2.378000000    -2.759000000     3.490000000
C    -0.047000000    -2.459000000     4.217000000
C     0.255000000    -3.950000000     3.913000000
H     1.145000000    -4.279000000     4.453000000
C     0.552000000    -4.167000000     2.419000000
C     1.915000000    -4.041000000     2.045000000
H     2.663000000    -3.826000000     2.804000000
H    -0.655000000    -4.466000000     4.226000000
C     0.953000000    -1.527000000     4.569000000
H     1.940000000    -1.953000000     4.732000000
C     0.684000000    -0.200000000     4.836000000
C     1.641000000     0.838000000     5.286000000
H     2.353000000     0.536000000     6.057000000
H     1.114000000     1.693000000     5.714000000
C     2.349000000     1.379000000     4.062000000
C     3.506000000     0.768000000     3.530000000
H     3.983000000    -0.077000000     4.020000000
C     1.777000000     2.439000000     3.355000000
C     2.450000000     2.939000000     2.236000000
H     2.097000000     3.844000000     1.748000000
C     3.538000000     2.261000000     1.753000000
O     4.088000000     2.824000000     0.650000000
C     3.800000000     2.211000000    -0.666000000
C     3.495000000     3.215000000    -1.783000000
C     3.639000000     2.814000000    -3.105000000
H     4.077000000     1.858000000    -3.380000000
C     2.775000000     4.339000000    -1.476000000
H     2.588000000     4.524000000    -0.421000000
O     4.840000000     1.264000000    -1.014000000
H     2.851000000     1.658000000    -0.611000000
C     4.106000000     1.122000000     2.384000000
C     5.230000000     0.332000000     1.667000000
H     5.767000000    -0.184000000     2.466000000
H     5.891000000     1.062000000     1.194000000
C     4.719000000    -0.620000000     0.587000000
C     4.480000000    -1.928000000     0.863000000
H     4.706000000    -2.395000000     1.818000000
C     4.586000000    -0.112000000    -0.727000000
C     3.952000000    -0.859000000    -1.740000000
H     3.800000000    -0.470000000    -2.744000000
C     3.664000000    -2.168000000    -1.415000000
O     3.085000000    -2.888000000    -2.378000000
C     1.644000000    -3.115000000    -2.224000000
C     0.945000000    -2.925000000    -3.559000000
C     1.402000000    -1.954000000    -4.367000000
H     2.251000000    -1.327000000    -4.109000000
C    -0.152000000    -3.662000000    -3.899000000
H    -0.595000000    -4.396000000    -3.230000000
O     1.457000000    -4.437000000    -1.689000000
H     1.291000000    -2.436000000    -1.435000000
C     3.907000000    -2.709000000    -0.138000000
C     3.749000000    -4.159000000     0.205000000
H     4.513000000    -4.401000000     0.946000000
H     3.938000000    -4.823000000    -0.641000000
C     2.313000000    -4.200000000     0.673000000
C     1.347000000    -4.441000000    -0.266000000
C     0.015000000    -4.351000000     0.169000000
H    -0.802000000    -4.515000000    -0.529000000
C    -0.403000000    -4.326000000     1.493000000
O    -1.685000000    -4.238000000     1.768000000
C    -2.214000000    -3.000000000     2.121000000
H    -1.556000000    -2.225000000     1.703000000
C    -3.555000000    -2.845000000     1.383000000
C    -4.544000000    -2.051000000     1.957000000
H    -4.326000000    -1.583000000     2.913000000
C    -3.667000000    -3.267000000     0.077000000
H    -2.923000000    -3.825000000    -0.485000000
C    -4.892000000    -2.974000000    -0.621000000
O    -4.985000000    -3.157000000    -2.048000000
C    -5.979000000    -2.349000000     0.043000000
H    -6.921000000    -2.144000000    -0.460000000
C    -5.819000000    -1.910000000     1.345000000
O    -6.852000000    -1.119000000     1.962000000
C    -6.555000000    -0.095000000     2.818000000
C    -5.983000000     1.070000000     2.371000000
H    -5.685000000     1.213000000     1.335000000
C    -6.888000000    -0.240000000     4.151000000
H    -7.425000000    -1.133000000     4.459000000
C    -6.584000000     0.779000000     5.046000000
H    -6.885000000     0.642000000     6.081000000
C    -6.075000000     2.017000000     4.559000000
H    -5.926000000     2.840000000     5.253000000
C    -5.788000000     2.140000000     3.217000000
O    -5.273000000     3.264000000     2.676000000
C    -3.987000000     3.709000000     2.606000000
C    -3.624000000     4.893000000     2.041000000
H    -4.324000000     5.573000000     1.563000000
C    -2.288000000     5.225000000     1.856000000
O    -1.934000000     6.326000000     1.091000000
C    -0.727000000     6.717000000     0.636000000
C    -0.281000000     6.236000000    -0.546000000
H    -0.876000000     5.456000000    -1.014000000
C    -0.039000000     7.707000000     1.275000000
H    -0.548000000     8.079000000     2.160000000
C     1.243000000     8.109000000     0.848000000
H     1.832000000     8.882000000     1.336000000
C     1.684000000     7.618000000    -0.379000000
H     2.573000000     8.017000000    -0.859000000
C     0.978000000     6.609000000    -0.957000000
O     1.379000000     6.160000000    -2.199000000
C     2.217000000     5.058000000    -2.493000000
C     2.445000000     4.774000000    -3.803000000
H     2.169000000     5.427000000    -4.628000000
C     3.129000000     3.643000000    -4.151000000
O     3.328000000     3.388000000    -5.467000000
C     3.416000000     2.078000000    -5.907000000
C     2.272000000     1.347000000    -6.013000000
H     1.282000000     1.776000000    -5.881000000
C     4.648000000     1.502000000    -6.140000000
H     5.526000000     2.114000000    -5.948000000
C     4.786000000     0.087000000    -6.522000000
H     5.797000000    -0.299000000    -6.631000000
C     3.585000000    -0.606000000    -6.583000000
H     3.610000000    -1.667000000    -6.815000000
C     2.334000000    -0.021000000    -6.357000000
O     1.245000000    -0.776000000    -6.500000000
C     0.809000000    -1.759000000    -5.638000000
C    -0.319000000    -2.511000000    -5.972000000
H    -0.700000000    -2.301000000    -6.968000000
C    -0.831000000    -3.503000000    -5.153000000
O    -1.922000000    -4.210000000    -5.477000000
C    -2.713000000    -4.675000000    -4.486000000
C    -3.211000000    -5.978000000    -4.576000000
H    -2.767000000    -6.654000000    -5.302000000
C    -4.099000000    -6.439000000    -3.636000000
H    -4.294000000    -7.501000000    -3.512000000
C    -4.782000000    -5.532000000    -2.820000000
H    -5.521000000    -5.903000000    -2.115000000
C    -4.379000000    -4.134000000    -2.808000000
C    -3.360000000    -3.792000000    -3.655000000
H    -3.058000000    -2.749000000    -3.696000000
C    -2.714000000     1.095000000     0.210000000
H    -3.565000000     0.674000000     0.741000000
C    -1.421000000     0.594000000     0.428000000
H    -1.188000000    -0.158000000     1.177000000
C    -0.280000000     1.242000000    -0.068000000
H     0.730000000     0.720000000     0.109000000
C    -0.417000000     2.261000000    -1.000000000
H     0.439000000     2.794000000    -1.404000000
C    -1.653000000     2.708000000    -1.336000000
H    -1.656000000     3.426000000    -2.151000000
C    -2.830000000     2.194000000    -0.697000000
C    -4.242000000     2.564000000    -1.230000000
O    -4.368000000     3.400000000    -2.094000000
O    -5.275000000     2.004000000    -0.804000000
O    -1.064000000     3.838000000    -4.921000000
H    -1.919000000     3.532000000    -5.225000000
H    -0.787000000     4.471000000    -5.583000000
O    -3.770000000     5.924000000    -3.300000000
H    -2.910000000     6.099000000    -3.681000000
H    -3.660000000     5.098000000    -2.830000000
O    -5.482000000     6.715000000    -5.368000000
H    -4.814000000     7.274000000    -5.764000000
H    -5.021000000     6.249000000    -4.670000000
O    -0.938000000     1.115000000    -4.251000000
H    -0.289000000     1.812000000    -4.348000000
H    -1.776000000     1.574000000    -4.202000000
O    -8.093000000     6.835000000    -0.500000000
H    -7.138000000     6.886000000    -0.463000000
H    -8.278000000     5.902000000    -0.605000000
O    -9.916000000     3.388000000    -2.306000000
H    -9.942000000     2.482000000    -1.997000000
H    -8.996000000     3.641000000    -2.227000000
O    -4.064000000    -0.337000000    -3.074000000
H    -3.374000000    -0.781000000    -2.582000000
H    -4.876000000    -0.606000000    -2.644000000
O    -6.940000000     0.856000000    -2.709000000
H    -6.271000000     1.277000000    -2.169000000
H    -7.024000000     1.425000000    -3.474000000
O    -5.062000000     6.611000000    -0.751000000
H    -4.798000000     6.560000000    -1.670000000
H    -4.561000000     7.345000000    -0.397000000
O    -3.642000000     2.176000000    -4.293000000
H    -3.925000000     2.681000000    -3.531000000
H    -3.721000000     1.262000000    -4.018000000
O    -2.946000000    -0.832000000    -6.129000000
H    -3.347000000    -0.608000000    -5.289000000
H    -2.255000000    -0.180000000    -6.246000000
O    -1.361000000    -1.037000000    -2.336000000
H    -1.222000000    -0.244000000    -1.820000000
H    -1.066000000    -0.805000000    -3.216000000
O    -3.820000000     3.451000000    -7.051000000
H    -3.681000000     2.946000000    -6.250000000
H    -4.447000000     4.129000000    -6.800000000
O    -8.181000000    -1.751000000    -2.819000000
H    -7.880000000    -0.843000000    -2.782000000
H    -7.793000000    -2.099000000    -3.622000000
O    -7.486000000     4.622000000     3.444000000
H    -7.285000000     5.553000000     3.353000000
H    -6.693000000     4.176000000     3.149000000
O    -8.785000000     1.972000000     0.081000000
H    -7.852000000     1.889000000    -0.117000000
H    -9.148000000     1.106000000    -0.107000000
O    -6.404000000     3.389000000    -3.938000000
H    -6.953000000     4.173000000    -3.942000000
H    -5.696000000     3.596000000    -3.328000000
O    -6.457000000     2.203000000    -6.431000000
H    -6.778000000     2.959000000    -6.922000000
H    -6.452000000     2.494000000    -5.519000000
O    -6.577000000     4.370000000    -0.190000000
H    -5.807000000     4.914000000    -0.022000000
H    -6.218000000     3.526000000    -0.464000000
