215
-1438.31383
C    -1.370000000     4.691000000     1.611000000
H    -0.379000000     4.815000000     1.183000000
C    -1.550000000     3.720000000     2.664000000
C    -2.846000000     3.528000000     3.130000000
H    -3.096000000     2.855000000     3.947000000
C    -0.418000000     2.901000000     3.181000000
O     0.742000000     3.753000000     3.288000000
H     0.028000000     2.143000000     2.520000000
O    -0.678000000     2.274000000     4.457000000
C    -0.399000000     1.006000000     4.565000000
C    -1.487000000     0.084000000     4.639000000
H    -2.525000000     0.402000000     4.693000000
C    -1.173000000    -1.258000000     4.499000000
O    -2.202000000    -2.156000000     4.270000000
C     0.163000000    -1.683000000     4.542000000
C     0.628000000    -3.159000000     4.532000000
H     1.476000000    -3.310000000     5.204000000
C     1.046000000    -3.635000000     3.192000000
C     2.317000000    -3.541000000     2.625000000
H     3.014000000    -3.035000000     3.289000000
H    -0.180000000    -3.783000000     4.918000000
C     1.187000000    -0.770000000     4.645000000
H     2.208000000    -1.106000000     4.812000000
C     0.942000000     0.536000000     4.649000000
C     2.035000000     1.573000000     4.996000000
H     2.815000000     1.140000000     5.625000000
H     1.682000000     2.386000000     5.634000000
C     2.505000000     2.123000000     3.633000000
C     3.624000000     1.473000000     3.055000000
H     4.166000000     0.716000000     3.615000000
C     1.916000000     3.157000000     2.894000000
C     2.414000000     3.546000000     1.617000000
H     2.034000000     4.397000000     1.058000000
C     3.515000000     2.894000000     1.033000000
O     3.861000000     3.177000000    -0.253000000
C     3.337000000     2.220000000    -1.222000000
C     2.774000000     2.864000000    -2.517000000
C     2.803000000     2.201000000    -3.809000000
H     3.422000000     1.326000000    -3.985000000
C     1.992000000     4.039000000    -2.472000000
H     2.056000000     4.663000000    -1.585000000
O     4.466000000     1.297000000    -1.591000000
H     2.524000000     1.645000000    -0.755000000
C     4.125000000     1.852000000     1.788000000
C     5.317000000     1.070000000     1.173000000
H     6.132000000     0.938000000     1.888000000
H     5.781000000     1.765000000     0.470000000
C     4.908000000    -0.170000000     0.408000000
C     4.714000000    -1.426000000     0.940000000
H     5.059000000    -1.450000000     1.971000000
C     4.482000000     0.075000000    -0.930000000
C     3.814000000    -0.913000000    -1.593000000
H     3.327000000    -0.707000000    -2.543000000
C     3.615000000    -2.197000000    -1.056000000
O     3.122000000    -3.186000000    -1.892000000
C     1.707000000    -3.480000000    -1.826000000
C     1.062000000    -3.610000000    -3.198000000
C     1.503000000    -2.926000000    -4.316000000
H     2.410000000    -2.344000000    -4.175000000
C    -0.138000000    -4.341000000    -3.190000000
H    -0.482000000    -4.828000000    -2.282000000
O     1.578000000    -4.603000000    -0.887000000
H     1.339000000    -2.554000000    -1.361000000
C     4.160000000    -2.494000000     0.172000000
C     3.982000000    -3.839000000     0.708000000
H     4.684000000    -4.093000000     1.505000000
H     4.258000000    -4.559000000    -0.065000000
C     2.617000000    -3.909000000     1.306000000
C     1.515000000    -4.370000000     0.543000000
C     0.245000000    -4.369000000     1.008000000
H    -0.508000000    -4.702000000     0.298000000
C    -0.023000000    -3.960000000     2.355000000
O    -1.368000000    -3.937000000     2.810000000
C    -2.078000000    -2.657000000     2.876000000
H    -1.357000000    -1.977000000     2.399000000
C    -3.369000000    -2.564000000     2.029000000
C    -4.303000000    -1.537000000     2.228000000
H    -4.022000000    -0.752000000     2.926000000
C    -3.625000000    -3.475000000     1.012000000
H    -2.863000000    -4.148000000     0.626000000
C    -4.849000000    -3.481000000     0.341000000
O    -5.217000000    -4.347000000    -0.715000000
C    -5.796000000    -2.523000000     0.691000000
H    -6.660000000    -2.460000000     0.035000000
C    -5.481000000    -1.496000000     1.486000000
O    -6.334000000    -0.482000000     1.734000000
C    -6.185000000     0.444000000     2.700000000
C    -5.718000000     1.704000000     2.397000000
H    -5.528000000     1.936000000     1.352000000
C    -6.573000000     0.143000000     4.050000000
H    -6.929000000    -0.848000000     4.322000000
C    -6.535000000     1.110000000     5.012000000
H    -6.780000000     0.735000000     6.002000000
C    -5.995000000     2.409000000     4.778000000
H    -6.008000000     3.188000000     5.536000000
C    -5.625000000     2.642000000     3.494000000
O    -5.249000000     3.984000000     3.182000000
C    -3.925000000     4.354000000     2.771000000
C    -3.699000000     5.294000000     1.726000000
H    -4.510000000     5.965000000     1.455000000
C    -2.385000000     5.441000000     1.165000000
O    -2.202000000     6.455000000     0.250000000
C    -0.998000000     6.737000000    -0.379000000
C    -0.732000000     5.995000000    -1.559000000
H    -1.451000000     5.317000000    -2.011000000
C    -0.096000000     7.713000000     0.022000000
H    -0.300000000     8.317000000     0.902000000
C     1.068000000     7.955000000    -0.701000000
H     1.690000000     8.783000000    -0.370000000
C     1.305000000     7.370000000    -1.907000000
H     2.214000000     7.557000000    -2.473000000
C     0.436000000     6.339000000    -2.338000000
O     0.763000000     5.787000000    -3.592000000
C     1.472000000     4.589000000    -3.609000000
C     1.673000000     4.081000000    -4.925000000
H     1.382000000     4.650000000    -5.804000000
C     2.355000000     2.813000000    -4.996000000
O     2.587000000     2.245000000    -6.231000000
C     2.818000000     0.944000000    -6.467000000
C     1.856000000     0.017000000    -6.293000000
H     0.889000000     0.328000000    -5.908000000
C     3.942000000     0.613000000    -7.167000000
H     4.628000000     1.352000000    -7.572000000
C     4.252000000    -0.735000000    -7.323000000
H     5.220000000    -0.956000000    -7.765000000
C     3.248000000    -1.724000000    -7.152000000
H     3.362000000    -2.784000000    -7.363000000
C     2.055000000    -1.270000000    -6.668000000
O     1.012000000    -2.180000000    -6.612000000
C     0.697000000    -2.946000000    -5.460000000
C    -0.525000000    -3.654000000    -5.432000000
H    -1.258000000    -3.666000000    -6.235000000
C    -0.926000000    -4.412000000    -4.330000000
O    -2.085000000    -5.112000000    -4.418000000
C    -2.823000000    -5.500000000    -3.324000000
C    -2.726000000    -6.833000000    -3.021000000
H    -1.929000000    -7.405000000    -3.489000000
C    -3.516000000    -7.349000000    -1.917000000
H    -3.384000000    -8.374000000    -1.578000000
C    -4.283000000    -6.452000000    -1.226000000
H    -4.608000000    -6.766000000    -0.237000000
C    -4.480000000    -5.116000000    -1.557000000
C    -3.639000000    -4.612000000    -2.596000000
H    -3.756000000    -3.573000000    -2.890000000
C    -1.652000000     1.388000000    -0.230000000
H    -2.582000000     1.702000000     0.237000000
C    -0.767000000     0.452000000     0.329000000
H    -0.770000000     0.039000000     1.334000000
C     0.287000000    -0.086000000    -0.429000000
H     0.963000000    -0.781000000    -0.008000000
C     0.403000000     0.330000000    -1.757000000
H     1.163000000    -0.153000000    -2.365000000
C    -0.393000000     1.265000000    -2.281000000
H    -0.293000000     1.602000000    -3.310000000
C    -1.467000000     1.745000000    -1.557000000
C    -2.438000000     2.707000000    -2.290000000
O    -2.022000000     3.415000000    -3.178000000
O    -3.660000000     2.610000000    -2.067000000
O    -2.766000000     3.113000000    -5.696000000
H    -3.704000000     3.297000000    -5.659000000
H    -2.493000000     3.078000000    -4.779000000
O    -5.604000000     7.383000000    -3.324000000
H    -5.167000000     6.532000000    -3.322000000
H    -5.236000000     7.843000000    -2.569000000
O    -0.801000000     3.436000000    -7.307000000
H    -0.386000000     2.614000000    -7.047000000
H    -1.695000000     3.371000000    -6.969000000
O    -7.988000000     5.029000000    -3.352000000
H    -7.707000000     5.643000000    -2.673000000
H    -7.600000000     4.193000000    -3.094000000
O    -5.244000000     0.992000000    -4.917000000
H    -5.715000000     0.171000000    -5.057000000
H    -5.170000000     1.067000000    -3.966000000
O    -4.597000000     0.050000000    -2.360000000
H    -3.802000000    -0.480000000    -2.296000000
H    -4.304000000     0.944000000    -2.184000000
O    -2.335000000     0.319000000    -6.496000000
H    -2.311000000     1.069000000    -5.901000000
H    -3.261000000     0.086000000    -6.551000000
O    -1.886000000     5.999000000    -4.897000000
H    -2.704000000     5.594000000    -4.608000000
H    -1.201000000     5.491000000    -4.462000000
O    -5.508000000     3.644000000    -5.433000000
H    -5.805000000     2.772000000    -5.174000000
H    -6.255000000     4.025000000    -5.894000000
O    -6.826000000     6.035000000    -0.862000000
H    -7.095000000     6.532000000    -0.089000000
H    -6.048000000     6.491000000    -1.182000000
O    -2.203000000    -1.336000000    -1.871000000
H    -1.394000000    -1.196000000    -2.363000000
H    -1.910000000    -1.542000000    -0.983000000
O    -4.804000000     3.710000000    -8.355000000
H    -4.561000000     4.593000000    -8.077000000
H    -4.551000000     3.150000000    -7.621000000
O    -5.906000000    -2.115000000    -3.735000000
H    -5.309000000    -1.477000000    -3.342000000
H    -6.548000000    -2.296000000    -3.048000000
O    -2.229000000     8.628000000    -3.555000000
H    -2.085000000     7.887000000    -4.143000000
H    -1.528000000     9.244000000    -3.768000000
O    -4.185000000     5.084000000    -3.471000000
H    -3.717000000     4.345000000    -3.083000000
H    -4.745000000     4.690000000    -4.139000000
O    -8.360000000     1.985000000    -0.352000000
H    -8.484000000     2.554000000     0.407000000
H    -7.510000000     2.243000000    -0.709000000
O    -4.480000000     7.551000000    -0.932000000
H    -3.648000000     7.187000000    -1.235000000
H    -4.248000000     8.405000000    -0.565000000
O    -6.241000000     3.127000000    -1.181000000
H    -6.398000000     4.044000000    -0.955000000
H    -5.317000000     3.096000000    -1.427000000
O    -1.978000000     6.703000000    -7.303000000
H    -1.614000000     6.362000000    -6.486000000
H    -1.961000000     7.654000000    -7.194000000
