215
-1489.12057
C    -1.187000000     5.297000000     1.315000000
H    -0.133000000     5.479000000     1.120000000
C    -1.577000000     4.303000000     2.222000000
C    -2.945000000     3.992000000     2.428000000
H    -3.279000000     3.126000000     2.993000000
C    -0.515000000     3.339000000     2.835000000
O     0.742000000     3.911000000     3.179000000
H    -0.385000000     2.565000000     2.064000000
O    -1.105000000     2.775000000     4.011000000
C    -0.820000000     1.429000000     4.230000000
C    -1.827000000     0.524000000     3.928000000
H    -2.822000000     0.829000000     3.614000000
C    -1.528000000    -0.835000000     3.972000000
O    -2.552000000    -1.651000000     3.551000000
C    -0.318000000    -1.325000000     4.571000000
C    -0.198000000    -2.847000000     4.757000000
H     0.581000000    -3.027000000     5.501000000
C     0.293000000    -3.503000000     3.486000000
C     1.705000000    -3.634000000     3.292000000
H     2.418000000    -3.435000000     4.088000000
H    -1.183000000    -3.186000000     5.085000000
C     0.639000000    -0.377000000     5.063000000
H     1.555000000    -0.733000000     5.528000000
C     0.428000000     1.016000000     4.799000000
C     1.534000000     2.047000000     5.058000000
H     2.178000000     1.663000000     5.851000000
H     1.005000000     2.976000000     5.284000000
C     2.301000000     2.294000000     3.751000000
C     3.445000000     1.531000000     3.478000000
H     3.743000000     0.781000000     4.207000000
C     1.920000000     3.291000000     2.898000000
C     2.628000000     3.572000000     1.696000000
H     2.294000000     4.362000000     1.028000000
C     3.718000000     2.754000000     1.337000000
O     4.311000000     2.802000000     0.097000000
C     3.721000000     1.899000000    -0.884000000
C     3.368000000     2.496000000    -2.194000000
C     3.735000000     1.863000000    -3.366000000
H     4.446000000     1.042000000    -3.399000000
C     2.538000000     3.639000000    -2.237000000
H     2.199000000     4.038000000    -1.284000000
O     4.797000000     0.922000000    -0.981000000
H     2.783000000     1.462000000    -0.512000000
C     4.098000000     1.724000000     2.244000000
C     5.299000000     0.831000000     1.844000000
H     5.845000000     0.423000000     2.698000000
H     6.008000000     1.496000000     1.347000000
C     4.909000000    -0.390000000     1.002000000
C     4.504000000    -1.519000000     1.709000000
H     4.634000000    -1.558000000     2.787000000
C     4.739000000    -0.275000000    -0.372000000
C     4.378000000    -1.426000000    -1.056000000
H     4.289000000    -1.363000000    -2.137000000
C     4.016000000    -2.615000000    -0.415000000
O     3.367000000    -3.586000000    -1.148000000
C     2.009000000    -3.690000000    -0.952000000
C     1.242000000    -3.793000000    -2.255000000
C     1.461000000    -2.898000000    -3.315000000
H     2.275000000    -2.181000000    -3.379000000
C     0.266000000    -4.812000000    -2.383000000
H     0.071000000    -5.538000000    -1.599000000
O     1.773000000    -4.803000000    -0.123000000
H     1.729000000    -2.707000000    -0.546000000
C     4.109000000    -2.647000000     0.980000000
C     3.717000000    -3.874000000     1.784000000
H     4.218000000    -3.810000000     2.752000000
H     4.180000000    -4.764000000     1.354000000
C     2.190000000    -4.065000000     2.044000000
C     1.295000000    -4.470000000     1.105000000
C    -0.087000000    -4.287000000     1.243000000
H    -0.760000000    -4.627000000     0.460000000
C    -0.577000000    -3.855000000     2.468000000
O    -1.888000000    -3.583000000     2.444000000
C    -2.351000000    -2.283000000     2.214000000
H    -1.500000000    -1.698000000     1.836000000
C    -3.577000000    -2.234000000     1.337000000
C    -4.272000000    -1.018000000     1.161000000
H    -4.049000000    -0.128000000     1.743000000
C    -3.868000000    -3.383000000     0.572000000
H    -3.197000000    -4.232000000     0.674000000
C    -4.929000000    -3.343000000    -0.291000000
O    -5.222000000    -4.406000000    -1.068000000
C    -5.723000000    -2.200000000    -0.406000000
H    -6.630000000    -2.259000000    -1.001000000
C    -5.391000000    -1.035000000     0.285000000
O    -6.100000000     0.115000000     0.180000000
C    -6.235000000     1.120000000     1.188000000
C    -5.561000000     2.360000000     1.144000000
H    -4.839000000     2.581000000     0.362000000
C    -7.073000000     0.846000000     2.266000000
H    -7.541000000    -0.133000000     2.207000000
C    -7.400000000     1.810000000     3.184000000
H    -8.083000000     1.588000000     4.000000000
C    -6.770000000     3.087000000     3.105000000
H    -7.019000000     3.897000000     3.785000000
C    -5.851000000     3.353000000     2.079000000
O    -5.254000000     4.602000000     2.073000000
C    -3.928000000     4.790000000     1.853000000
C    -3.549000000     5.872000000     1.092000000
H    -4.366000000     6.440000000     0.655000000
C    -2.214000000     6.051000000     0.729000000
O    -1.804000000     7.115000000    -0.070000000
C    -0.626000000     7.094000000    -0.832000000
C    -0.420000000     6.164000000    -1.844000000
H    -1.205000000     5.452000000    -2.084000000
C     0.363000000     7.970000000    -0.534000000
H     0.222000000     8.808000000     0.143000000
C     1.590000000     7.922000000    -1.267000000
H     2.328000000     8.699000000    -1.082000000
C     1.824000000     6.924000000    -2.219000000
H     2.772000000     6.921000000    -2.752000000
C     0.812000000     6.018000000    -2.441000000
O     1.044000000     5.137000000    -3.522000000
C     1.989000000     4.079000000    -3.436000000
C     2.445000000     3.507000000    -4.593000000
H     2.162000000     3.910000000    -5.562000000
C     3.298000000     2.376000000    -4.573000000
O     3.621000000     1.770000000    -5.763000000
C     3.380000000     0.454000000    -6.132000000
C     2.236000000    -0.196000000    -5.624000000
H     1.529000000     0.401000000    -5.056000000
C     4.341000000    -0.188000000    -6.840000000
H     5.270000000     0.263000000    -7.180000000
C     4.093000000    -1.546000000    -7.229000000
H     4.858000000    -2.040000000    -7.823000000
C     2.982000000    -2.210000000    -6.733000000
H     2.758000000    -3.187000000    -7.153000000
C     2.052000000    -1.558000000    -5.918000000
O     0.888000000    -2.225000000    -5.602000000
C     0.723000000    -3.036000000    -4.484000000
C    -0.183000000    -4.071000000    -4.604000000
H    -0.689000000    -4.281000000    -5.543000000
C    -0.437000000    -4.893000000    -3.546000000
O    -1.425000000    -5.869000000    -3.734000000
C    -2.443000000    -6.135000000    -2.803000000
C    -2.633000000    -7.401000000    -2.385000000
H    -2.085000000    -8.196000000    -2.883000000
C    -3.828000000    -7.711000000    -1.696000000
H    -4.041000000    -8.706000000    -1.313000000
C    -4.750000000    -6.748000000    -1.229000000
H    -5.622000000    -7.002000000    -0.633000000
C    -4.409000000    -5.434000000    -1.484000000
C    -3.307000000    -5.151000000    -2.296000000
H    -3.141000000    -4.119000000    -2.595000000
C    -1.595000000    -0.605000000    -1.423000000
H    -2.224000000    -1.286000000    -1.991000000
C    -0.494000000    -1.110000000    -0.669000000
H    -0.332000000    -2.183000000    -0.735000000
C     0.164000000    -0.275000000     0.198000000
H     0.946000000    -0.630000000     0.949000000
C    -0.030000000     1.121000000     0.110000000
H     0.646000000     1.838000000     0.570000000
C    -1.169000000     1.582000000    -0.552000000
H    -1.455000000     2.631000000    -0.553000000
C    -1.908000000     0.762000000    -1.374000000
C    -3.115000000     1.336000000    -2.145000000
O    -3.587000000     2.415000000    -1.881000000
O    -3.469000000     0.676000000    -3.114000000
O    -0.534000000     2.704000000    -6.314000000
H    -0.728000000     1.857000000    -5.912000000
H    -0.904000000     3.347000000    -5.708000000
O    -3.639000000     5.064000000    -2.113000000
H    -4.355000000     5.376000000    -1.559000000
H    -3.632000000     4.116000000    -1.984000000
O    -8.652000000    -0.183000000    -1.656000000
H    -8.599000000     0.685000000    -1.257000000
H    -8.915000000    -0.014000000    -2.561000000
O    -6.424000000     6.485000000    -1.027000000
H    -6.772000000     7.008000000    -0.305000000
H    -7.143000000     5.901000000    -1.268000000
O    -7.117000000     4.135000000    -5.274000000
H    -7.598000000     4.633000000    -4.612000000
H    -6.250000000     4.540000000    -5.295000000
O    -4.238000000    -1.805000000    -3.703000000
H    -3.719000000    -1.103000000    -3.311000000
H    -5.136000000    -1.475000000    -3.692000000
O    -4.952000000     6.044000000    -5.315000000
H    -4.128000000     6.108000000    -4.831000000
H    -5.438000000     6.830000000    -5.066000000
O    -6.813000000    -0.948000000    -3.952000000
H    -6.838000000    -0.709000000    -3.025000000
H    -6.968000000    -0.125000000    -4.416000000
O    -1.882000000     0.525000000    -5.230000000
H    -2.481000000     0.669000000    -4.498000000
H    -1.428000000    -0.289000000    -5.012000000
O    -3.388000000     1.559000000    -7.153000000
H    -2.733000000     1.223000000    -6.541000000
H    -2.893000000     2.120000000    -7.750000000
O    -6.047000000     0.978000000    -7.701000000
H    -6.441000000     1.119000000    -6.840000000
H    -5.105000000     0.959000000    -7.533000000
O    -8.466000000     2.496000000    -1.251000000
H    -7.705000000     2.494000000    -1.831000000
H    -8.684000000     3.422000000    -1.145000000
O    -7.799000000     1.517000000    -5.500000000
H    -8.504000000     1.539000000    -4.853000000
H    -7.636000000     2.438000000    -5.708000000
O    -4.484000000     2.496000000    -4.747000000
H    -4.243000000     1.939000000    -5.487000000
H    -4.331000000     1.951000000    -3.976000000
O    -1.716000000     5.743000000    -7.224000000
H    -2.028000000     5.705000000    -6.320000000
H    -2.101000000     4.973000000    -7.643000000
O    -5.113000000    -3.943000000    -4.770000000
H    -4.675000000    -3.224000000    -4.315000000
H    -4.793000000    -3.887000000    -5.670000000
O    -6.161000000     2.904000000    -2.621000000
H    -6.073000000     2.738000000    -3.560000000
H    -5.260000000     2.931000000    -2.298000000
O    -2.368000000     4.423000000    -4.779000000
H    -2.621000000     4.461000000    -3.857000000
H    -3.135000000     4.061000000    -5.223000000
O    -3.827000000     7.756000000    -2.705000000
H    -3.321000000     6.953000000    -2.576000000
H    -4.685000000     7.561000000    -2.327000000
