215
-1449.56358
C    -1.485000000     4.815000000     2.023000000
H    -0.489000000     4.963000000     1.613000000
C    -1.749000000     3.819000000     2.979000000
C    -3.060000000     3.592000000     3.448000000
H    -3.385000000     2.642000000     3.864000000
C    -0.660000000     2.873000000     3.530000000
O     0.549000000     3.471000000     3.800000000
H    -0.468000000     2.138000000     2.734000000
O    -1.173000000     2.127000000     4.679000000
C    -0.816000000     0.785000000     4.645000000
C    -1.792000000    -0.095000000     4.275000000
H    -2.785000000     0.293000000     4.064000000
C    -1.505000000    -1.458000000     4.266000000
O    -2.453000000    -2.319000000     3.832000000
C    -0.253000000    -1.916000000     4.675000000
C     0.137000000    -3.425000000     4.507000000
H     0.870000000    -3.864000000     5.187000000
C     0.513000000    -3.719000000     3.048000000
C     1.864000000    -3.723000000     2.703000000
H     2.567000000    -3.327000000     3.430000000
H    -0.813000000    -3.898000000     4.766000000
C     0.773000000    -0.990000000     4.908000000
H     1.781000000    -1.348000000     5.099000000
C     0.493000000     0.369000000     4.899000000
C     1.661000000     1.269000000     5.361000000
H     2.422000000     0.688000000     5.885000000
H     1.426000000     2.089000000     6.043000000
C     2.292000000     1.810000000     4.063000000
C     3.411000000     1.212000000     3.514000000
H     3.879000000     0.412000000     4.082000000
C     1.697000000     2.872000000     3.401000000
C     2.263000000     3.252000000     2.179000000
H     1.905000000     4.172000000     1.724000000
C     3.302000000     2.565000000     1.497000000
O     3.581000000     2.832000000     0.142000000
C     3.248000000     1.818000000    -0.865000000
C     2.587000000     2.440000000    -2.100000000
C     3.031000000     1.959000000    -3.342000000
H     3.644000000     1.062000000    -3.318000000
C     1.779000000     3.535000000    -2.007000000
H     1.598000000     3.959000000    -1.023000000
O     4.435000000     1.046000000    -1.113000000
H     2.614000000     1.074000000    -0.360000000
C     3.924000000     1.541000000     2.259000000
C     5.096000000     0.710000000     1.721000000
H     5.576000000     0.339000000     2.629000000
H     5.729000000     1.432000000     1.200000000
C     4.759000000    -0.406000000     0.702000000
C     4.658000000    -1.706000000     1.264000000
H     4.896000000    -1.866000000     2.313000000
C     4.456000000    -0.202000000    -0.655000000
C     4.167000000    -1.287000000    -1.497000000
H     3.970000000    -1.033000000    -2.535000000
C     3.991000000    -2.534000000    -0.906000000
O     3.473000000    -3.447000000    -1.712000000
C     2.013000000    -3.351000000    -1.660000000
C     1.452000000    -3.365000000    -3.066000000
C     2.213000000    -2.996000000    -4.126000000
H     3.254000000    -2.693000000    -4.048000000
C     0.095000000    -3.619000000    -3.245000000
H    -0.466000000    -3.895000000    -2.356000000
O     1.583000000    -4.586000000    -0.957000000
H     1.597000000    -2.525000000    -1.066000000
C     4.245000000    -2.781000000     0.441000000
C     3.783000000    -4.053000000     1.112000000
H     4.299000000    -4.079000000     2.074000000
H     4.027000000    -4.928000000     0.507000000
C     2.295000000    -4.102000000     1.388000000
C     1.334000000    -4.490000000     0.407000000
C     0.012000000    -4.479000000     0.796000000
H    -0.728000000    -4.774000000     0.056000000
C    -0.426000000    -4.140000000     2.067000000
O    -1.754000000    -4.113000000     2.326000000
C    -2.347000000    -2.759000000     2.434000000
H    -1.723000000    -1.982000000     1.969000000
C    -3.598000000    -2.601000000     1.523000000
C    -4.153000000    -1.336000000     1.542000000
H    -3.733000000    -0.527000000     2.136000000
C    -3.966000000    -3.496000000     0.477000000
H    -3.420000000    -4.434000000     0.421000000
C    -5.069000000    -3.261000000    -0.305000000
O    -5.378000000    -4.130000000    -1.298000000
C    -5.687000000    -2.019000000    -0.291000000
H    -6.625000000    -1.967000000    -0.836000000
C    -5.240000000    -1.118000000     0.682000000
O    -5.692000000     0.212000000     0.551000000
C    -6.013000000     0.940000000     1.740000000
C    -5.554000000     2.249000000     1.846000000
H    -4.814000000     2.599000000     1.131000000
C    -6.961000000     0.424000000     2.681000000
H    -7.346000000    -0.574000000     2.491000000
C    -7.454000000     1.313000000     3.684000000
H    -8.253000000     0.894000000     4.290000000
C    -6.993000000     2.570000000     3.811000000
H    -7.233000000     3.181000000     4.678000000
C    -5.956000000     3.039000000     2.983000000
O    -5.377000000     4.178000000     3.365000000
C    -4.045000000     4.449000000     3.022000000
C    -3.796000000     5.484000000     2.112000000
H    -4.652000000     5.916000000     1.600000000
C    -2.550000000     5.623000000     1.552000000
O    -2.300000000     6.658000000     0.642000000
C    -1.134000000     6.710000000    -0.126000000
C    -0.855000000     5.850000000    -1.204000000
H    -1.493000000     4.980000000    -1.341000000
C    -0.153000000     7.578000000     0.349000000
H    -0.276000000     8.059000000     1.316000000
C     1.027000000     7.712000000    -0.373000000
H     1.787000000     8.299000000     0.137000000
C     1.271000000     6.974000000    -1.497000000
H     2.243000000     7.015000000    -1.981000000
C     0.336000000     6.061000000    -1.968000000
O     0.617000000     5.326000000    -3.047000000
C     1.463000000     4.246000000    -3.140000000
C     1.972000000     3.848000000    -4.407000000
H     1.773000000     4.395000000    -5.325000000
C     2.773000000     2.676000000    -4.501000000
O     3.122000000     2.241000000    -5.741000000
C     3.643000000     0.970000000    -6.132000000
C     2.830000000    -0.177000000    -5.992000000
H     1.871000000    -0.058000000    -5.493000000
C     4.879000000     0.875000000    -6.753000000
H     5.542000000     1.728000000    -6.872000000
C     5.247000000    -0.377000000    -7.297000000
H     6.210000000    -0.380000000    -7.802000000
C     4.408000000    -1.519000000    -7.176000000
H     4.721000000    -2.499000000    -7.526000000
C     3.223000000    -1.445000000    -6.424000000
O     2.347000000    -2.487000000    -6.429000000
C     1.621000000    -2.916000000    -5.343000000
C     0.257000000    -3.082000000    -5.553000000
H    -0.185000000    -2.850000000    -6.519000000
C    -0.552000000    -3.393000000    -4.430000000
O    -1.895000000    -3.600000000    -4.620000000
C    -2.682000000    -4.381000000    -3.819000000
C    -2.411000000    -5.720000000    -3.718000000
H    -1.567000000    -6.099000000    -4.288000000
C    -3.095000000    -6.633000000    -2.881000000
H    -2.798000000    -7.678000000    -2.838000000
C    -4.211000000    -6.114000000    -2.222000000
H    -4.884000000    -6.783000000    -1.691000000
C    -4.380000000    -4.665000000    -2.142000000
C    -3.678000000    -3.879000000    -3.004000000
H    -3.988000000    -2.838000000    -2.972000000
C    -2.054000000    -0.311000000    -1.397000000
H    -2.700000000    -0.934000000    -2.009000000
C    -1.289000000    -0.962000000    -0.437000000
H    -1.323000000    -2.045000000    -0.358000000
C    -0.463000000    -0.264000000     0.428000000
H     0.116000000    -0.784000000     1.197000000
C    -0.254000000     1.106000000     0.240000000
H     0.481000000     1.637000000     0.840000000
C    -1.060000000     1.744000000    -0.748000000
H    -0.870000000     2.798000000    -0.933000000
C    -2.025000000     1.040000000    -1.484000000
C    -2.828000000     1.855000000    -2.570000000
O    -2.902000000     3.068000000    -2.683000000
O    -3.448000000     1.166000000    -3.287000000
O    -8.347000000    -1.678000000    -4.197000000
H    -7.583000000    -1.218000000    -3.849000000
H    -8.238000000    -1.639000000    -5.147000000
O     0.090000000     1.786000000    -6.079000000
H     0.923000000     1.903000000    -5.623000000
H    -0.465000000     2.493000000    -5.749000000
O    -3.716000000     5.502000000    -3.024000000
H    -3.793000000     5.418000000    -3.974000000
H    -3.363000000     4.660000000    -2.736000000
O    -4.905000000     7.836000000    -1.777000000
H    -4.334000000     7.251000000    -2.276000000
H    -5.763000000     7.744000000    -2.192000000
O    -1.665000000    -0.678000000    -8.276000000
H    -1.928000000    -0.732000000    -7.357000000
H    -2.125000000    -1.403000000    -8.699000000
O    -6.711000000     5.743000000    -0.033000000
H    -5.960000000     5.254000000    -0.370000000
H    -7.093000000     5.169000000     0.630000000
O    -7.435000000     2.880000000    -5.365000000
H    -6.582000000     2.448000000    -5.410000000
H    -7.354000000     3.495000000    -4.636000000
O    -5.843000000    -0.111000000    -3.460000000
H    -4.976000000     0.269000000    -3.318000000
H    -6.452000000     0.558000000    -3.146000000
O     0.679000000     0.660000000    -8.363000000
H    -0.053000000     0.046000000    -8.423000000
H     0.683000000     0.940000000    -7.448000000
O    -7.294000000     4.352000000    -2.958000000
H    -8.098000000     4.660000000    -2.540000000
H    -6.645000000     5.025000000    -2.753000000
O    -4.439000000     5.115000000    -5.585000000
H    -5.002000000     4.347000000    -5.493000000
H    -4.385000000     5.260000000    -6.530000000
O    -2.035000000     0.202000000    -5.688000000
H    -2.077000000     0.491000000    -4.776000000
H    -1.187000000     0.517000000    -6.000000000
O    -2.301000000     3.944000000    -8.035000000
H    -1.953000000     3.519000000    -7.251000000
H    -2.443000000     3.227000000    -8.653000000
O    -4.741000000    -0.549000000    -6.009000000
H    -5.120000000    -0.503000000    -5.131000000
H    -3.901000000    -0.096000000    -5.930000000
O    -7.504000000     1.728000000    -2.390000000
H    -7.348000000     2.596000000    -2.762000000
H    -7.723000000     1.896000000    -1.473000000
O    -4.805000000     2.437000000    -5.372000000
H    -4.505000000     2.027000000    -6.184000000
H    -4.225000000     2.085000000    -4.698000000
O    -4.896000000     3.583000000    -1.052000000
H    -5.291000000     2.942000000    -1.643000000
H    -3.989000000     3.656000000    -1.348000000
O    -1.787000000     3.551000000    -5.210000000
H    -1.908000000     4.472000000    -5.439000000
H    -2.318000000     3.428000000    -4.423000000
O    -1.174000000     6.162000000    -4.968000000
H    -1.592000000     6.944000000    -4.608000000
H    -0.708000000     5.776000000    -4.226000000
