215
-1456.68575
C    -1.275000000     4.806000000     1.943000000
H    -0.226000000     4.841000000     1.658000000
C    -1.735000000     3.721000000     2.743000000
C    -3.135000000     3.521000000     2.900000000
H    -3.501000000     2.637000000     3.416000000
C    -0.659000000     2.736000000     3.300000000
O     0.640000000     3.386000000     3.457000000
H    -0.549000000     1.861000000     2.642000000
O    -1.014000000     2.196000000     4.550000000
C    -0.899000000     0.797000000     4.665000000
C    -1.959000000     0.020000000     4.293000000
H    -2.893000000     0.507000000     4.025000000
C    -1.826000000    -1.384000000     4.139000000
O    -2.797000000    -2.016000000     3.380000000
C    -0.628000000    -1.934000000     4.528000000
C    -0.476000000    -3.434000000     4.403000000
H     0.131000000    -3.851000000     5.210000000
C     0.115000000    -3.761000000     3.052000000
C     1.525000000    -3.862000000     2.804000000
H     2.224000000    -3.806000000     3.635000000
H    -1.490000000    -3.837000000     4.450000000
C     0.465000000    -1.156000000     4.914000000
H     1.441000000    -1.564000000     5.164000000
C     0.346000000     0.249000000     4.932000000
C     1.522000000     1.184000000     5.337000000
H     2.123000000     0.528000000     5.970000000
H     1.167000000     2.001000000     5.967000000
C     2.252000000     1.679000000     4.098000000
C     3.435000000     1.040000000     3.763000000
H     3.679000000     0.187000000     4.391000000
C     1.790000000     2.672000000     3.249000000
C     2.585000000     3.040000000     2.168000000
H     2.209000000     3.865000000     1.568000000
C     3.727000000     2.358000000     1.847000000
O     4.170000000     2.780000000     0.574000000
C     4.048000000     1.899000000    -0.620000000
C     3.662000000     2.664000000    -1.890000000
C     3.954000000     2.145000000    -3.165000000
H     4.441000000     1.184000000    -3.310000000
C     2.618000000     3.637000000    -1.788000000
H     2.150000000     3.839000000    -0.827000000
O     5.228000000     1.070000000    -0.706000000
H     3.197000000     1.229000000    -0.434000000
C     4.205000000     1.349000000     2.635000000
C     5.390000000     0.505000000     2.189000000
H     5.818000000     0.131000000     3.121000000
H     6.141000000     1.191000000     1.792000000
C     4.985000000    -0.511000000     1.158000000
C     4.659000000    -1.794000000     1.578000000
H     4.737000000    -2.014000000     2.640000000
C     4.935000000    -0.148000000    -0.188000000
C     4.355000000    -1.096000000    -1.100000000
H     4.187000000    -0.743000000    -2.115000000
C     4.057000000    -2.388000000    -0.665000000
O     3.473000000    -3.169000000    -1.646000000
C     2.045000000    -3.407000000    -1.651000000
C     1.425000000    -3.526000000    -3.020000000
C     1.952000000    -2.917000000    -4.119000000
H     2.789000000    -2.241000000    -3.964000000
C     0.428000000    -4.433000000    -3.249000000
H     0.106000000    -5.113000000    -2.464000000
O     1.725000000    -4.594000000    -0.835000000
H     1.518000000    -2.516000000    -1.281000000
C     4.126000000    -2.725000000     0.659000000
C     3.573000000    -4.074000000     1.298000000
H     4.063000000    -4.281000000     2.252000000
H     3.858000000    -4.893000000     0.635000000
C     2.063000000    -4.166000000     1.562000000
C     1.243000000    -4.337000000     0.449000000
C    -0.166000000    -4.248000000     0.621000000
H    -0.786000000    -4.426000000    -0.254000000
C    -0.678000000    -3.891000000     1.889000000
O    -2.073000000    -3.706000000     1.872000000
C    -2.418000000    -2.322000000     2.059000000
H    -1.512000000    -1.717000000     1.908000000
C    -3.581000000    -1.960000000     1.083000000
C    -4.548000000    -0.980000000     1.380000000
H    -4.566000000    -0.427000000     2.315000000
C    -3.640000000    -2.616000000    -0.154000000
H    -2.900000000    -3.356000000    -0.447000000
C    -4.718000000    -2.457000000    -1.081000000
O    -4.767000000    -3.060000000    -2.291000000
C    -5.669000000    -1.514000000    -0.711000000
H    -6.460000000    -1.306000000    -1.427000000
C    -5.600000000    -0.855000000     0.502000000
O    -6.594000000     0.055000000     0.674000000
C    -6.755000000     1.009000000     1.672000000
C    -5.848000000     2.010000000     1.800000000
H    -5.065000000     1.991000000     1.046000000
C    -7.770000000     0.877000000     2.612000000
H    -8.415000000     0.003000000     2.572000000
C    -8.150000000     1.938000000     3.491000000
H    -9.039000000     1.859000000     4.111000000
C    -7.242000000     3.025000000     3.503000000
H    -7.412000000     3.862000000     4.175000000
C    -6.140000000     3.092000000     2.661000000
O    -5.422000000     4.288000000     2.591000000
C    -4.037000000     4.461000000     2.430000000
C    -3.625000000     5.477000000     1.703000000
H    -4.369000000     6.134000000     1.259000000
C    -2.278000000     5.589000000     1.317000000
O    -1.939000000     6.676000000     0.519000000
C    -0.847000000     6.768000000    -0.224000000
C    -0.531000000     5.812000000    -1.157000000
H    -1.315000000     5.103000000    -1.412000000
C     0.029000000     7.782000000     0.124000000
H    -0.274000000     8.541000000     0.840000000
C     1.283000000     7.829000000    -0.498000000
H     2.065000000     8.495000000    -0.142000000
C     1.615000000     6.831000000    -1.464000000
H     2.636000000     6.919000000    -1.826000000
C     0.696000000     5.846000000    -1.768000000
O     0.959000000     4.948000000    -2.790000000
C     1.971000000     4.111000000    -2.925000000
C     2.254000000     3.568000000    -4.131000000
H     1.655000000     3.846000000    -4.994000000
C     3.282000000     2.645000000    -4.302000000
O     3.606000000     2.235000000    -5.543000000
C     3.710000000     0.978000000    -5.942000000
C     2.652000000     0.037000000    -5.742000000
H     1.775000000     0.314000000    -5.164000000
C     4.861000000     0.573000000    -6.506000000
H     5.645000000     1.323000000    -6.576000000
C     5.004000000    -0.655000000    -7.129000000
H     5.963000000    -0.898000000    -7.580000000
C     4.014000000    -1.594000000    -6.931000000
H     4.074000000    -2.549000000    -7.447000000
C     2.792000000    -1.203000000    -6.290000000
O     1.740000000    -2.105000000    -6.415000000
C     1.329000000    -2.903000000    -5.330000000
C     0.282000000    -3.748000000    -5.549000000
H    -0.228000000    -3.673000000    -6.506000000
C    -0.181000000    -4.551000000    -4.461000000
O    -1.313000000    -5.358000000    -4.644000000
C    -2.336000000    -5.415000000    -3.717000000
C    -2.692000000    -6.590000000    -3.099000000
H    -2.103000000    -7.469000000    -3.347000000
C    -3.748000000    -6.664000000    -2.227000000
H    -4.143000000    -7.529000000    -1.701000000
C    -4.480000000    -5.502000000    -1.893000000
H    -5.256000000    -5.458000000    -1.132000000
C    -4.096000000    -4.256000000    -2.534000000
C    -3.094000000    -4.275000000    -3.475000000
H    -2.773000000    -3.339000000    -3.924000000
C    -1.807000000    -0.351000000    -1.452000000
H    -2.641000000    -0.879000000    -1.908000000
C    -0.819000000    -0.999000000    -0.722000000
H    -0.846000000    -2.082000000    -0.642000000
C     0.087000000    -0.262000000     0.021000000
H     0.793000000    -0.928000000     0.557000000
C     0.112000000     1.105000000    -0.151000000
H     0.754000000     1.659000000     0.528000000
C    -0.805000000     1.746000000    -1.000000000
H    -0.681000000     2.806000000    -1.207000000
C    -1.844000000     1.006000000    -1.665000000
C    -2.893000000     1.646000000    -2.423000000
O    -3.004000000     2.871000000    -2.572000000
O    -3.750000000     0.970000000    -3.022000000
O    -7.449000000    -3.393000000    -4.085000000
H    -7.756000000    -3.078000000    -4.935000000
H    -6.679000000    -2.856000000    -3.894000000
O    -1.707000000     1.736000000    -5.975000000
H    -2.457000000     1.949000000    -6.530000000
H    -1.585000000     2.513000000    -5.428000000
O    -4.653000000     4.731000000    -3.114000000
H    -5.417000000     4.585000000    -2.556000000
H    -4.076000000     3.990000000    -2.928000000
O    -6.367000000     0.280000000    -7.508000000
H    -6.453000000     0.201000000    -8.458000000
H    -5.788000000     1.032000000    -7.381000000
O    -4.865000000     7.254000000    -2.538000000
H    -4.482000000     6.416000000    -2.799000000
H    -4.893000000     7.767000000    -3.346000000
O    -3.537000000    -1.029000000    -7.950000000
H    -3.458000000    -1.234000000    -7.019000000
H    -2.726000000    -1.360000000    -8.337000000
O    -6.878000000     4.038000000    -1.129000000
H    -6.530000000     3.149000000    -1.206000000
H    -7.653000000     3.944000000    -0.576000000
O    -7.066000000     3.412000000    -5.884000000
H    -6.137000000     3.266000000    -5.704000000
H    -7.423000000     3.731000000    -5.055000000
O    -5.868000000    -0.260000000    -4.040000000
H    -5.242000000     0.417000000    -3.783000000
H    -6.719000000     0.176000000    -4.006000000
O     0.265000000     1.132000000    -8.616000000
H    -0.273000000     1.858000000    -8.932000000
H     0.382000000     1.309000000    -7.683000000
O    -7.911000000     4.675000000    -3.712000000
H    -8.448000000     5.451000000    -3.547000000
H    -7.419000000     4.548000000    -2.901000000
O    -2.716000000    -0.768000000    -5.053000000
H    -3.161000000    -0.375000000    -4.302000000
H    -2.081000000    -0.107000000    -5.329000000
O    -3.739000000     1.494000000    -8.650000000
H    -3.729000000     0.620000000    -8.261000000
H    -3.150000000     1.428000000    -9.403000000
O    -5.233000000    -2.324000000    -5.786000000
H    -5.359000000    -1.505000000    -6.266000000
H    -5.251000000    -2.066000000    -4.864000000
O    -8.185000000     0.969000000    -3.078000000
H    -7.351000000     1.149000000    -2.645000000
H    -8.847000000     1.191000000    -2.423000000
O    -4.383000000     2.636000000    -5.185000000
H    -4.105000000     3.416000000    -4.705000000
H    -4.179000000     1.908000000    -4.598000000
O    -2.083000000     4.464000000    -7.357000000
H    -1.825000000     4.250000000    -6.460000000
H    -2.491000000     5.328000000    -7.289000000
O    -6.003000000     1.580000000    -1.655000000
H    -6.204000000     0.931000000    -0.981000000
H    -5.109000000     1.374000000    -1.926000000
O    -1.841000000     4.224000000    -4.479000000
H    -1.708000000     5.156000000    -4.307000000
H    -2.026000000     3.846000000    -3.620000000
