215
-1486.18138
C    -0.616000000     4.753000000     2.421000000
H     0.436000000     4.935000000     2.216000000
C    -1.032000000     3.614000000     3.095000000
C    -2.378000000     3.278000000     3.152000000
H    -2.590000000     2.267000000     3.488000000
C     0.017000000     2.556000000     3.595000000
O     1.330000000     3.097000000     3.769000000
H     0.114000000     1.786000000     2.815000000
O    -0.383000000     1.896000000     4.822000000
C    -0.122000000     0.513000000     4.821000000
C    -1.164000000    -0.292000000     4.651000000
H    -2.082000000     0.273000000     4.508000000
C    -1.018000000    -1.629000000     4.378000000
O    -2.135000000    -2.360000000     3.979000000
C     0.258000000    -2.155000000     4.305000000
C     0.562000000    -3.650000000     4.038000000
H     1.422000000    -3.883000000     4.670000000
C     0.708000000    -3.968000000     2.508000000
C     2.011000000    -4.212000000     1.944000000
H     2.943000000    -4.231000000     2.504000000
H    -0.225000000    -4.245000000     4.506000000
C     1.353000000    -1.285000000     4.524000000
H     2.330000000    -1.759000000     4.579000000
C     1.218000000     0.019000000     4.879000000
C     2.453000000     0.841000000     5.108000000
H     3.131000000     0.351000000     5.810000000
H     2.297000000     1.847000000     5.504000000
C     3.022000000     1.317000000     3.759000000
C     3.994000000     0.531000000     3.032000000
H     4.505000000    -0.298000000     3.514000000
C     2.439000000     2.497000000     3.214000000
C     2.876000000     2.910000000     1.942000000
H     2.463000000     3.831000000     1.538000000
C     3.805000000     2.186000000     1.194000000
O     4.193000000     2.606000000    -0.044000000
C     3.734000000     1.884000000    -1.194000000
C     3.305000000     2.843000000    -2.401000000
C     2.897000000     2.225000000    -3.588000000
H     3.075000000     1.168000000    -3.767000000
C     3.022000000     4.160000000    -2.171000000
H     3.241000000     4.571000000    -1.189000000
O     4.671000000     0.970000000    -1.648000000
H     2.849000000     1.285000000    -0.930000000
C     4.348000000     0.945000000     1.721000000
C     5.349000000     0.052000000     0.991000000
H     5.838000000    -0.559000000     1.752000000
H     6.158000000     0.695000000     0.636000000
C     4.643000000    -0.783000000     0.029000000
C     4.388000000    -2.101000000     0.434000000
H     4.766000000    -2.541000000     1.352000000
C     4.418000000    -0.340000000    -1.314000000
C     3.873000000    -1.210000000    -2.207000000
H     3.727000000    -0.919000000    -3.244000000
C     3.390000000    -2.457000000    -1.757000000
O     2.597000000    -3.175000000    -2.711000000
C     1.177000000    -3.294000000    -2.352000000
C     0.363000000    -3.176000000    -3.620000000
C     0.883000000    -2.670000000    -4.822000000
H     1.954000000    -2.492000000    -4.864000000
C    -1.021000000    -3.421000000    -3.524000000
H    -1.469000000    -3.695000000    -2.573000000
O     1.056000000    -4.521000000    -1.580000000
H     0.903000000    -2.448000000    -1.705000000
C     3.716000000    -2.917000000    -0.491000000
C     3.472000000    -4.312000000    -0.070000000
H     4.279000000    -4.658000000     0.579000000
H     3.486000000    -5.006000000    -0.913000000
C     2.117000000    -4.314000000     0.587000000
C     0.954000000    -4.384000000    -0.243000000
C    -0.313000000    -4.254000000     0.345000000
H    -1.208000000    -4.372000000    -0.261000000
C    -0.444000000    -4.109000000     1.697000000
O    -1.747000000    -3.948000000     2.220000000
C    -2.234000000    -2.649000000     2.539000000
H    -1.483000000    -2.022000000     2.036000000
C    -3.659000000    -2.455000000     1.924000000
C    -4.486000000    -1.415000000     2.392000000
H    -4.063000000    -0.815000000     3.195000000
C    -4.146000000    -3.312000000     0.958000000
H    -3.537000000    -4.102000000     0.524000000
C    -5.384000000    -3.055000000     0.471000000
O    -5.832000000    -3.883000000    -0.564000000
C    -6.229000000    -2.022000000     0.895000000
H    -7.247000000    -2.041000000     0.513000000
C    -5.812000000    -1.272000000     1.966000000
O    -6.682000000    -0.372000000     2.569000000
C    -6.261000000     0.729000000     3.322000000
C    -5.681000000     1.847000000     2.642000000
H    -5.567000000     1.760000000     1.565000000
C    -6.567000000     0.821000000     4.663000000
H    -7.034000000    -0.067000000     5.082000000
C    -6.276000000     2.006000000     5.389000000
H    -6.482000000     2.105000000     6.452000000
C    -5.521000000     3.007000000     4.744000000
H    -5.213000000     3.914000000     5.257000000
C    -5.302000000     2.943000000     3.362000000
O    -4.711000000     3.964000000     2.784000000
C    -3.342000000     4.135000000     2.642000000
C    -2.932000000     5.264000000     1.933000000
H    -3.622000000     5.948000000     1.447000000
C    -1.614000000     5.555000000     1.806000000
O    -1.372000000     6.457000000     0.850000000
C    -0.126000000     6.758000000     0.357000000
C     0.123000000     6.262000000    -0.958000000
H    -0.582000000     5.659000000    -1.525000000
C     0.824000000     7.439000000     1.070000000
H     0.606000000     7.869000000     2.044000000
C     2.099000000     7.646000000     0.537000000
H     2.924000000     8.177000000     1.005000000
C     2.448000000     7.077000000    -0.656000000
H     3.454000000     7.304000000    -0.999000000
C     1.434000000     6.475000000    -1.445000000
O     1.629000000     6.123000000    -2.720000000
C     2.272000000     4.908000000    -3.085000000
C     1.958000000     4.369000000    -4.315000000
H     1.460000000     4.907000000    -5.117000000
C     2.323000000     3.016000000    -4.609000000
O     1.906000000     2.443000000    -5.847000000
C     2.246000000     1.250000000    -6.294000000
C     1.252000000     0.301000000    -6.311000000
H     0.237000000     0.413000000    -5.938000000
C     3.542000000     1.032000000    -6.818000000
H     4.242000000     1.864000000    -6.833000000
C     3.795000000    -0.190000000    -7.425000000
H     4.807000000    -0.323000000    -7.797000000
C     2.842000000    -1.269000000    -7.455000000
H     3.083000000    -2.265000000    -7.817000000
C     1.576000000    -0.958000000    -6.918000000
O     0.547000000    -1.852000000    -7.007000000
C     0.049000000    -2.524000000    -5.923000000
C    -1.285000000    -2.876000000    -5.873000000
H    -1.895000000    -2.740000000    -6.762000000
C    -1.781000000    -3.371000000    -4.676000000
O    -3.154000000    -3.560000000    -4.559000000
C    -3.728000000    -4.328000000    -3.567000000
C    -3.372000000    -5.682000000    -3.505000000
H    -2.767000000    -6.104000000    -4.304000000
C    -3.811000000    -6.388000000    -2.392000000
H    -3.467000000    -7.411000000    -2.262000000
C    -4.645000000    -5.831000000    -1.402000000
H    -5.084000000    -6.354000000    -0.556000000
C    -4.970000000    -4.464000000    -1.494000000
C    -4.540000000    -3.742000000    -2.573000000
H    -4.792000000    -2.687000000    -2.631000000
C    -2.502000000     0.332000000    -0.917000000
H    -3.489000000     0.017000000    -1.247000000
C    -1.592000000    -0.670000000    -0.534000000
H    -1.932000000    -1.703000000    -0.539000000
C    -0.366000000    -0.288000000    -0.051000000
H     0.255000000    -0.931000000     0.424000000
C    -0.006000000     1.027000000    -0.016000000
H     0.983000000     1.281000000     0.359000000
C    -0.871000000     2.085000000    -0.403000000
H    -0.495000000     3.104000000    -0.385000000
C    -2.168000000     1.696000000    -0.801000000
C    -3.238000000     2.638000000    -1.256000000
O    -2.923000000     3.822000000    -1.523000000
O    -4.413000000     2.328000000    -1.286000000
O    -6.139000000     6.883000000    -4.597000000
H    -6.243000000     6.691000000    -3.665000000
H    -7.013000000     7.146000000    -4.886000000
O    -0.932000000     3.494000000    -3.185000000
H    -0.429000000     4.252000000    -3.482000000
H    -1.559000000     3.853000000    -2.558000000
O    -3.930000000     6.152000000    -0.990000000
H    -3.374000000     6.869000000    -1.297000000
H    -3.475000000     5.358000000    -1.273000000
O    -2.947000000    -0.612000000    -4.931000000
H    -2.241000000    -0.176000000    -4.453000000
H    -3.160000000    -1.378000000    -4.397000000
O    -8.607000000     4.261000000     0.116000000
H    -7.672000000     4.391000000    -0.043000000
H    -8.693000000     3.323000000     0.287000000
O    -7.802000000     3.746000000    -3.119000000
H    -8.166000000     3.310000000    -2.349000000
H    -7.568000000     4.622000000    -2.811000000
O    -6.384000000     0.533000000    -0.780000000
H    -5.959000000    -0.167000000    -0.285000000
H    -5.679000000     1.151000000    -0.975000000
O    -3.572000000     4.603000000    -4.059000000
H    -3.263000000     4.332000000    -3.195000000
H    -4.304000000     5.193000000    -3.878000000
O    -0.894000000     0.758000000    -3.519000000
H    -0.785000000     1.705000000    -3.434000000
H    -0.640000000     0.410000000    -2.665000000
O    -3.775000000     1.942000000    -5.855000000
H    -4.305000000     2.197000000    -5.100000000
H    -3.386000000     1.104000000    -5.603000000
O    -6.919000000     6.052000000    -1.900000000
H    -7.179000000     6.729000000    -1.276000000
H    -6.511000000     5.374000000    -1.361000000
O    -8.104000000    -0.667000000    -2.537000000
H    -7.469000000    -0.182000000    -2.009000000
H    -8.195000000    -0.149000000    -3.337000000
O    -1.611000000     6.245000000    -5.383000000
H    -2.143000000     5.510000000    -5.080000000
H    -2.002000000     7.012000000    -4.964000000
O    -8.912000000     1.611000000    -0.121000000
H    -8.097000000     1.328000000    -0.536000000
H    -9.291000000     0.808000000     0.236000000
O    -5.536000000     2.340000000    -3.764000000
H    -6.372000000     2.791000000    -3.645000000
H    -5.177000000     2.264000000    -2.881000000
O    -5.082000000     4.500000000    -6.445000000
H    -4.593000000     3.719000000    -6.185000000
H    -4.949000000     5.116000000    -5.724000000
O    -7.580000000     0.714000000    -5.077000000
H    -8.132000000     1.447000000    -5.349000000
H    -6.880000000     1.119000000    -4.564000000
O    -5.764000000     4.308000000     0.237000000
H    -5.188000000     5.073000000     0.219000000
H    -5.251000000     3.612000000    -0.172000000
O    -1.077000000     2.418000000    -7.046000000
H    -0.625000000     2.957000000    -6.397000000
H    -1.966000000     2.324000000    -6.703000000
