215
-1440.18454
C    -2.564000000     4.405000000     0.021000000
H    -1.561000000     4.813000000    -0.074000000
C    -2.817000000     3.612000000     1.080000000
C    -4.146000000     3.246000000     1.341000000
H    -4.449000000     2.605000000     2.165000000
C    -1.630000000     3.168000000     2.052000000
O    -0.633000000     4.205000000     2.240000000
H    -1.105000000     2.358000000     1.524000000
O    -2.088000000     2.790000000     3.410000000
C    -1.701000000     1.616000000     4.103000000
C    -2.407000000     0.492000000     3.956000000
H    -3.304000000     0.486000000     3.342000000
C    -1.935000000    -0.718000000     4.405000000
O    -2.647000000    -1.840000000     4.009000000
C    -0.639000000    -0.775000000     4.937000000
C     0.034000000    -2.121000000     5.238000000
H     0.705000000    -1.962000000     6.085000000
C     0.732000000    -2.697000000     4.026000000
C     2.130000000    -2.466000000     3.908000000
H     2.698000000    -1.988000000     4.702000000
H    -0.870000000    -2.663000000     5.525000000
C     0.139000000     0.398000000     5.045000000
H     1.162000000     0.269000000     5.390000000
C    -0.375000000     1.585000000     4.608000000
C     0.454000000     2.872000000     4.705000000
H     1.135000000     2.941000000     5.556000000
H    -0.219000000     3.704000000     4.927000000
C     1.209000000     3.116000000     3.360000000
C     2.544000000     2.632000000     3.231000000
H     3.007000000     2.207000000     4.117000000
C     0.620000000     3.683000000     2.240000000
C     1.332000000     3.781000000     1.040000000
H     0.841000000     4.249000000     0.190000000
C     2.655000000     3.369000000     0.971000000
O     3.263000000     3.448000000    -0.207000000
C     3.376000000     2.295000000    -1.044000000
C     3.184000000     2.765000000    -2.509000000
C     3.836000000     2.189000000    -3.621000000
H     4.696000000     1.528000000    -3.558000000
C     2.141000000     3.611000000    -2.709000000
H     1.698000000     4.069000000    -1.828000000
O     4.743000000     1.816000000    -0.866000000
H     2.645000000     1.546000000    -0.704000000
C     3.286000000     2.804000000     2.060000000
C     4.763000000     2.338000000     1.970000000
H     5.193000000     2.231000000     2.968000000
H     5.281000000     3.068000000     1.343000000
C     4.794000000     0.915000000     1.317000000
C     4.640000000    -0.130000000     2.211000000
H     4.391000000     0.103000000     3.243000000
C     4.833000000     0.748000000    -0.031000000
C     4.869000000    -0.542000000    -0.606000000
H     4.894000000    -0.750000000    -1.672000000
C     4.617000000    -1.594000000     0.257000000
O     4.267000000    -2.768000000    -0.302000000
C     2.899000000    -3.086000000    -0.274000000
C     2.387000000    -3.591000000    -1.634000000
C     2.727000000    -2.893000000    -2.780000000
H     3.341000000    -1.998000000    -2.834000000
C     1.449000000    -4.618000000    -1.709000000
H     1.145000000    -5.119000000    -0.794000000
O     2.735000000    -4.127000000     0.753000000
H     2.308000000    -2.233000000     0.090000000
C     4.576000000    -1.415000000     1.685000000
C     4.284000000    -2.621000000     2.656000000
H     4.737000000    -2.326000000     3.605000000
H     4.824000000    -3.546000000     2.443000000
C     2.789000000    -2.958000000     2.873000000
C     2.105000000    -3.706000000     1.880000000
C     0.707000000    -3.889000000     1.936000000
H     0.206000000    -4.537000000     1.221000000
C    -0.005000000    -3.355000000     2.951000000
O    -1.338000000    -3.517000000     3.007000000
C    -2.206000000    -2.438000000     2.779000000
H    -1.676000000    -1.620000000     2.269000000
C    -3.295000000    -2.838000000     1.802000000
C    -4.461000000    -2.062000000     1.812000000
H    -4.546000000    -1.297000000     2.579000000
C    -3.008000000    -3.665000000     0.679000000
H    -2.002000000    -4.074000000     0.638000000
C    -4.110000000    -3.845000000    -0.216000000
O    -3.971000000    -4.636000000    -1.307000000
C    -5.350000000    -3.157000000    -0.097000000
H    -6.164000000    -3.352000000    -0.790000000
C    -5.510000000    -2.236000000     0.910000000
O    -6.690000000    -1.689000000     1.014000000
C    -6.991000000    -0.407000000     1.509000000
C    -6.504000000     0.699000000     0.825000000
H    -5.941000000     0.547000000    -0.092000000
C    -7.789000000    -0.362000000     2.575000000
H    -8.117000000    -1.284000000     3.049000000
C    -8.073000000     0.908000000     3.062000000
H    -8.620000000     0.989000000     3.998000000
C    -7.639000000     2.073000000     2.394000000
H    -7.974000000     3.021000000     2.806000000
C    -6.751000000     2.012000000     1.312000000
O    -6.400000000     3.120000000     0.622000000
C    -5.063000000     3.646000000     0.410000000
C    -4.751000000     4.550000000    -0.587000000
H    -5.602000000     4.818000000    -1.208000000
C    -3.487000000     4.949000000    -0.797000000
O    -3.240000000     5.818000000    -1.802000000
C    -2.020000000     6.138000000    -2.240000000
C    -1.378000000     5.388000000    -3.184000000
H    -1.949000000     4.544000000    -3.565000000
C    -1.332000000     7.239000000    -1.662000000
H    -1.843000000     7.839000000    -0.914000000
C     0.004000000     7.465000000    -2.016000000
H     0.488000000     8.372000000    -1.664000000
C     0.690000000     6.564000000    -2.824000000
H     1.738000000     6.754000000    -3.041000000
C    -0.047000000     5.518000000    -3.336000000
O     0.574000000     4.636000000    -4.244000000
C     1.702000000     3.918000000    -3.997000000
C     2.277000000     3.264000000    -5.068000000
H     2.010000000     3.483000000    -6.099000000
C     3.366000000     2.411000000    -4.905000000
O     4.115000000     1.824000000    -5.945000000
C     4.262000000     0.419000000    -5.960000000
C     3.253000000    -0.365000000    -5.491000000
H     2.277000000     0.018000000    -5.205000000
C     5.427000000    -0.131000000    -6.464000000
H     6.242000000     0.530000000    -6.749000000
C     5.642000000    -1.469000000    -6.412000000
H     6.622000000    -1.865000000    -6.667000000
C     4.650000000    -2.305000000    -5.872000000
H     4.817000000    -3.379000000    -5.880000000
C     3.448000000    -1.745000000    -5.470000000
O     2.376000000    -2.512000000    -5.166000000
C     2.176000000    -3.254000000    -4.018000000
C     1.388000000    -4.412000000    -4.108000000
H     1.128000000    -4.746000000    -5.110000000
C     1.068000000    -5.153000000    -2.982000000
O     0.282000000    -6.250000000    -3.114000000
C    -0.897000000    -6.395000000    -2.384000000
C    -1.089000000    -7.639000000    -1.726000000
H    -0.258000000    -8.323000000    -1.875000000
C    -2.261000000    -7.901000000    -1.064000000
H    -2.362000000    -8.877000000    -0.596000000
C    -3.288000000    -6.890000000    -0.897000000
H    -4.243000000    -7.110000000    -0.427000000
C    -3.063000000    -5.634000000    -1.399000000
C    -1.853000000    -5.385000000    -2.082000000
H    -1.815000000    -4.365000000    -2.456000000
C    -1.975000000    -0.999000000    -1.244000000
H    -2.455000000    -1.974000000    -1.230000000
C    -0.695000000    -0.856000000    -0.634000000
H    -0.257000000    -1.709000000    -0.122000000
C    -0.049000000     0.284000000    -0.690000000
H     0.943000000     0.368000000    -0.257000000
C    -0.703000000     1.431000000    -1.157000000
H    -0.140000000     2.359000000    -1.110000000
C    -1.987000000     1.357000000    -1.770000000
H    -2.486000000     2.210000000    -2.223000000
C    -2.632000000     0.166000000    -1.825000000
C    -3.895000000    -0.042000000    -2.603000000
O    -4.439000000     0.941000000    -3.131000000
O    -4.323000000    -1.210000000    -2.800000000
O    -9.583000000     1.369000000    -3.200000000
H   -10.223000000     1.433000000    -3.909000000
H    -8.776000000     1.723000000    -3.574000000
O    -3.685000000    -4.315000000    -6.164000000
H    -3.141000000    -5.101000000    -6.103000000
H    -3.295000000    -3.706000000    -5.536000000
O    -0.281000000     0.899000000    -5.652000000
H    -0.065000000     0.949000000    -6.583000000
H     0.213000000     1.615000000    -5.253000000
O    -4.264000000     3.375000000    -4.085000000
H    -4.945000000     3.932000000    -3.707000000
H    -4.376000000     2.530000000    -3.650000000
O    -6.989000000     2.786000000    -6.465000000
H    -6.597000000     2.335000000    -7.213000000
H    -6.993000000     3.709000000    -6.717000000
O    -6.522000000     5.026000000    -3.742000000
H    -7.132000000     5.235000000    -3.035000000
H    -6.999000000     4.408000000    -4.296000000
O    -0.351000000    -1.155000000    -3.858000000
H    -0.549000000    -0.486000000    -4.514000000
H    -0.228000000    -0.665000000    -3.045000000
O    -5.329000000    -5.394000000    -3.885000000
H    -4.660000000    -5.065000000    -3.285000000
H    -5.016000000    -5.144000000    -4.754000000
O    -5.848000000    -1.098000000    -7.380000000
H    -5.139000000    -0.648000000    -6.920000000
H    -6.621000000    -0.945000000    -6.836000000
O    -8.956000000    -3.468000000    -1.082000000
H    -8.635000000    -2.610000000    -1.357000000
H    -8.871000000    -3.462000000    -0.128000000
O    -2.730000000    -2.644000000    -4.302000000
H    -1.938000000    -2.139000000    -4.118000000
H    -3.336000000    -2.404000000    -3.601000000
O    -0.217000000    -2.603000000    -6.248000000
H    -0.761000000    -2.230000000    -5.554000000
H     0.620000000    -2.788000000    -5.822000000
O    -7.141000000     1.874000000    -4.023000000
H    -6.341000000     1.422000000    -3.755000000
H    -6.972000000     2.146000000    -4.925000000
O    -8.154000000    -0.645000000    -6.099000000
H    -8.360000000    -1.295000000    -5.427000000
H    -8.871000000    -0.013000000    -6.048000000
O    -4.180000000     0.742000000    -5.918000000
H    -4.090000000     1.694000000    -5.877000000
H    -4.141000000     0.458000000    -5.005000000
O    -4.027000000     3.656000000    -7.650000000
H    -3.299000000     3.403000000    -7.081000000
H    -4.068000000     2.963000000    -8.308000000
O    -6.337000000    -2.029000000    -4.405000000
H    -5.900000000    -2.448000000    -5.146000000
H    -5.622000000    -1.719000000    -3.849000000
O    -7.968000000    -0.905000000    -2.027000000
H    -7.359000000    -1.311000000    -2.643000000
H    -8.184000000    -0.061000000    -2.424000000
O    -2.059000000     3.310000000    -5.948000000
H    -1.631000000     2.487000000    -5.713000000
H    -2.699000000     3.455000000    -5.251000000
