215
-1450.84881
C    -2.244000000     3.619000000     2.046000000
H    -1.179000000     3.791000000     1.914000000
C    -2.609000000     2.582000000     2.903000000
C    -3.913000000     2.260000000     3.031000000
H    -4.291000000     1.478000000     3.685000000
C    -1.478000000     1.839000000     3.530000000
O    -0.438000000     2.788000000     3.992000000
H    -1.007000000     1.237000000     2.739000000
O    -1.945000000     0.970000000     4.601000000
C    -1.448000000    -0.233000000     4.630000000
C    -2.259000000    -1.154000000     3.909000000
H    -3.246000000    -0.913000000     3.523000000
C    -1.718000000    -2.426000000     3.534000000
O    -2.452000000    -3.149000000     2.691000000
C    -0.437000000    -2.772000000     3.976000000
C     0.094000000    -4.167000000     3.480000000
H     0.733000000    -4.584000000     4.261000000
C     0.811000000    -4.192000000     2.134000000
C     2.161000000    -4.043000000     1.936000000
H     2.760000000    -3.893000000     2.831000000
H    -0.737000000    -4.874000000     3.436000000
C     0.327000000    -1.918000000     4.727000000
H     1.350000000    -2.019000000     5.081000000
C    -0.182000000    -0.610000000     5.095000000
C     0.782000000     0.416000000     5.619000000
H     1.507000000    -0.006000000     6.318000000
H     0.309000000     1.204000000     6.210000000
C     1.400000000     1.199000000     4.492000000
C     2.696000000     0.816000000     4.043000000
H     3.133000000    -0.073000000     4.491000000
C     0.842000000     2.326000000     3.911000000
C     1.608000000     3.029000000     2.906000000
H     1.190000000     3.904000000     2.414000000
C     2.903000000     2.634000000     2.461000000
O     3.434000000     3.309000000     1.443000000
C     3.346000000     2.760000000     0.134000000
C     3.042000000     3.772000000    -0.952000000
C     3.150000000     3.367000000    -2.313000000
H     3.289000000     2.311000000    -2.529000000
C     2.417000000     4.945000000    -0.638000000
H     2.145000000     5.103000000     0.402000000
O     4.600000000     2.042000000    -0.179000000
H     2.518000000     2.039000000     0.078000000
C     3.465000000     1.476000000     3.050000000
C     4.869000000     1.094000000     2.623000000
H     5.319000000     0.652000000     3.515000000
H     5.493000000     1.944000000     2.338000000
C     4.755000000     0.180000000     1.385000000
C     4.658000000    -1.185000000     1.519000000
H     4.699000000    -1.670000000     2.491000000
C     4.649000000     0.714000000     0.076000000
C     4.522000000    -0.114000000    -1.072000000
H     4.485000000     0.290000000    -2.080000000
C     4.373000000    -1.445000000    -0.894000000
O     3.926000000    -2.110000000    -2.011000000
C     2.537000000    -2.521000000    -2.113000000
C     1.945000000    -2.376000000    -3.493000000
C     2.552000000    -1.399000000    -4.331000000
H     3.321000000    -0.775000000    -3.883000000
C     0.970000000    -3.157000000    -4.042000000
H     0.465000000    -3.880000000    -3.408000000
O     2.447000000    -3.908000000    -1.640000000
H     1.974000000    -1.965000000    -1.349000000
C     4.434000000    -2.019000000     0.394000000
C     4.239000000    -3.532000000     0.561000000
H     4.745000000    -3.898000000     1.456000000
H     4.819000000    -4.071000000    -0.191000000
C     2.784000000    -3.975000000     0.668000000
C     1.970000000    -4.112000000    -0.398000000
C     0.621000000    -4.459000000    -0.228000000
H     0.001000000    -4.663000000    -1.098000000
C    -0.022000000    -4.405000000     1.007000000
O    -1.421000000    -4.498000000     1.089000000
C    -2.071000000    -3.253000000     1.239000000
H    -1.481000000    -2.360000000     0.983000000
C    -3.278000000    -3.196000000     0.294000000
C    -4.378000000    -2.560000000     0.855000000
H    -4.484000000    -2.170000000     1.864000000
C    -3.210000000    -3.593000000    -1.038000000
H    -2.311000000    -4.053000000    -1.439000000
C    -4.331000000    -3.443000000    -1.812000000
O    -4.358000000    -3.938000000    -3.174000000
C    -5.521000000    -2.997000000    -1.250000000
H    -6.406000000    -2.987000000    -1.882000000
C    -5.522000000    -2.517000000     0.057000000
O    -6.709000000    -2.047000000     0.579000000
C    -6.759000000    -1.177000000     1.676000000
C    -6.417000000     0.151000000     1.448000000
H    -6.101000000     0.508000000     0.471000000
C    -7.343000000    -1.556000000     2.847000000
H    -7.586000000    -2.576000000     3.134000000
C    -7.542000000    -0.658000000     3.884000000
H    -8.030000000    -0.977000000     4.802000000
C    -7.281000000     0.711000000     3.661000000
H    -7.479000000     1.543000000     4.331000000
C    -6.712000000     1.097000000     2.474000000
O    -6.244000000     2.418000000     2.375000000
C    -4.919000000     2.876000000     2.232000000
C    -4.584000000     3.967000000     1.446000000
H    -5.296000000     4.488000000     0.813000000
C    -3.229000000     4.395000000     1.330000000
O    -2.920000000     5.509000000     0.512000000
C    -1.711000000     6.197000000     0.594000000
C    -0.759000000     6.057000000    -0.381000000
H    -0.925000000     5.421000000    -1.247000000
C    -1.563000000     7.012000000     1.705000000
H    -2.320000000     7.045000000     2.485000000
C    -0.410000000     7.716000000     1.854000000
H    -0.319000000     8.350000000     2.733000000
C     0.615000000     7.595000000     0.888000000
H     1.508000000     8.210000000     0.817000000
C     0.392000000     6.775000000    -0.247000000
O     1.213000000     6.840000000    -1.276000000
C     2.059000000     5.797000000    -1.653000000
C     2.196000000     5.405000000    -3.002000000
H     1.863000000     6.045000000    -3.816000000
C     2.782000000     4.218000000    -3.336000000
O     2.761000000     3.876000000    -4.638000000
C     3.488000000     2.903000000    -5.193000000
C     2.832000000     1.864000000    -5.864000000
H     1.754000000     1.902000000    -6.003000000
C     4.892000000     2.953000000    -5.029000000
H     5.447000000     3.787000000    -4.607000000
C     5.628000000     1.905000000    -5.605000000
H     6.714000000     1.935000000    -5.627000000
C     4.978000000     0.787000000    -6.153000000
H     5.537000000    -0.083000000    -6.487000000
C     3.586000000     0.747000000    -6.189000000
O     2.943000000    -0.423000000    -6.582000000
C     2.242000000    -1.220000000    -5.692000000
C     1.260000000    -2.089000000    -6.180000000
H     1.130000000    -2.060000000    -7.259000000
C     0.638000000    -3.054000000    -5.389000000
O    -0.375000000    -3.885000000    -5.824000000
C    -1.306000000    -4.585000000    -5.044000000
C    -1.165000000    -5.939000000    -4.817000000
H    -0.242000000    -6.329000000    -5.240000000
C    -2.025000000    -6.664000000    -3.985000000
H    -1.971000000    -7.743000000    -3.869000000
C    -3.190000000    -5.991000000    -3.489000000
H    -3.954000000    -6.440000000    -2.860000000
C    -3.350000000    -4.593000000    -3.798000000
C    -2.411000000    -3.912000000    -4.594000000
H    -2.574000000    -2.846000000    -4.734000000
C    -2.113000000     0.838000000    -1.633000000
H    -3.189000000     0.844000000    -1.482000000
C    -1.282000000     0.873000000    -0.558000000
H    -1.689000000     0.997000000     0.442000000
C     0.114000000     0.869000000    -0.739000000
H     0.798000000     0.800000000     0.169000000
C     0.653000000     0.867000000    -2.032000000
H     1.739000000     0.888000000    -2.046000000
C    -0.237000000     0.830000000    -3.128000000
H     0.218000000     0.823000000    -4.115000000
C    -1.621000000     0.673000000    -2.926000000
C    -2.532000000     0.427000000    -4.111000000
O    -2.181000000     0.550000000    -5.242000000
O    -3.720000000     0.299000000    -3.885000000
O    -5.587000000     4.383000000    -2.993000000
H    -5.603000000     5.334000000    -3.102000000
H    -5.612000000     4.039000000    -3.886000000
O    -2.936000000     3.768000000    -2.554000000
H    -3.864000000     3.863000000    -2.340000000
H    -2.721000000     2.872000000    -2.293000000
O    -3.870000000     1.009000000    -7.135000000
H    -3.309000000     0.844000000    -6.377000000
H    -4.463000000     0.258000000    -7.163000000
O     0.347000000     4.940000000    -7.588000000
H     0.369000000     4.427000000    -6.780000000
H     0.840000000     5.734000000    -7.380000000
O    -2.260000000     5.875000000    -7.549000000
H    -2.674000000     5.035000000    -7.748000000
H    -1.340000000     5.659000000    -7.397000000
O    -0.560000000     1.220000000    -7.228000000
H    -0.325000000     2.024000000    -6.765000000
H    -0.991000000     0.680000000    -6.566000000
O    -2.003000000    -2.526000000    -8.252000000
H    -1.677000000    -3.220000000    -8.825000000
H    -1.820000000    -1.717000000    -8.729000000
O    -7.944000000     1.062000000    -1.783000000
H    -8.337000000     0.316000000    -1.332000000
H    -7.730000000     0.729000000    -2.655000000
O    -6.097000000    -4.110000000    -8.072000000
H    -5.873000000    -4.816000000    -7.466000000
H    -5.587000000    -3.360000000    -7.766000000
O    -3.309000000     3.388000000    -8.074000000
H    -3.281000000     2.546000000    -7.618000000
H    -4.010000000     3.289000000    -8.718000000
O    -4.375000000    -2.222000000    -7.226000000
H    -3.548000000    -2.417000000    -7.667000000
H    -4.140000000    -2.139000000    -6.302000000
O    -0.369000000     3.591000000    -5.549000000
H    -0.674000000     2.976000000    -4.882000000
H    -0.325000000     4.433000000    -5.096000000
O    -2.083000000     0.017000000    -9.364000000
H    -2.887000000     0.449000000    -9.077000000
H    -1.402000000     0.379000000    -8.797000000
O    -7.331000000     3.767000000    -0.856000000
H    -6.585000000     3.889000000    -1.443000000
H    -7.721000000     2.937000000    -1.134000000
O     0.915000000     2.147000000    -9.645000000
H     0.274000000     2.837000000    -9.814000000
H     0.506000000     1.597000000    -8.977000000
O    -5.008000000     2.352000000    -4.811000000
H    -4.691000000     2.034000000    -5.657000000
H    -4.572000000     1.795000000    -4.167000000
O    -8.507000000    -1.018000000    -5.640000000
H    -7.743000000    -0.731000000    -5.140000000
H    -8.380000000    -1.960000000    -5.753000000
O    -6.797000000     0.372000000    -3.966000000
H    -6.487000000     1.039000000    -4.578000000
H    -6.034000000     0.173000000    -3.423000000
O    -1.322000000     5.509000000    -3.806000000
H    -1.957000000     6.075000000    -4.244000000
H    -1.852000000     4.828000000    -3.393000000
