215
-1459.99177
C    -3.644000000     3.462000000     1.646000000
H    -2.906000000     4.170000000     2.014000000
C    -3.494000000     2.157000000     2.038000000
C    -4.446000000     1.202000000     1.611000000
H    -4.371000000     0.183000000     1.984000000
C    -2.392000000     1.727000000     2.966000000
O    -1.912000000     2.862000000     3.649000000
H    -1.712000000     1.236000000     2.254000000
O    -2.872000000     0.781000000     3.926000000
C    -2.036000000    -0.315000000     4.034000000
C    -2.469000000    -1.462000000     3.402000000
H    -3.465000000    -1.613000000     2.993000000
C    -1.575000000    -2.544000000     3.461000000
O    -1.913000000    -3.692000000     2.808000000
C    -0.346000000    -2.503000000     4.079000000
C     0.634000000    -3.626000000     4.103000000
H     1.184000000    -3.588000000     5.045000000
C     1.517000000    -3.629000000     2.893000000
C     2.815000000    -3.182000000     2.936000000
H     3.132000000    -2.749000000     3.882000000
H     0.074000000    -4.562000000     4.142000000
C     0.041000000    -1.327000000     4.743000000
H     0.944000000    -1.186000000     5.332000000
C    -0.830000000    -0.231000000     4.764000000
C    -0.441000000     1.107000000     5.485000000
H     0.193000000     0.796000000     6.319000000
H    -1.333000000     1.468000000     6.002000000
C     0.225000000     2.045000000     4.536000000
C     1.664000000     2.046000000     4.497000000
H     2.206000000     1.392000000     5.175000000
C    -0.530000000     2.883000000     3.697000000
C     0.158000000     3.718000000     2.856000000
H    -0.366000000     4.340000000     2.133000000
C     1.548000000     3.623000000     2.725000000
O     2.152000000     4.339000000     1.680000000
C     2.360000000     3.653000000     0.468000000
C     1.848000000     4.442000000    -0.763000000
C     2.370000000     3.977000000    -1.992000000
H     3.230000000     3.312000000    -1.982000000
C     0.705000000     5.194000000    -0.783000000
H     0.222000000     5.329000000     0.181000000
O     3.759000000     3.272000000     0.331000000
H     1.772000000     2.723000000     0.480000000
C     2.327000000     2.770000000     3.480000000
C     3.795000000     2.576000000     3.123000000
H     4.273000000     2.282000000     4.060000000
H     4.259000000     3.531000000     2.867000000
C     4.092000000     1.522000000     1.992000000
C     4.176000000     0.180000000     2.364000000
H     4.018000000    -0.032000000     3.418000000
C     4.060000000     1.901000000     0.663000000
C     4.409000000     0.959000000    -0.306000000
H     4.487000000     1.161000000    -1.371000000
C     4.684000000    -0.379000000     0.065000000
O     4.900000000    -1.348000000    -0.919000000
C     3.764000000    -2.173000000    -1.296000000
C     3.679000000    -2.244000000    -2.823000000
C     4.162000000    -1.216000000    -3.657000000
H     4.903000000    -0.540000000    -3.238000000
C     2.622000000    -3.082000000    -3.325000000
H     2.198000000    -3.875000000    -2.713000000
O     3.692000000    -3.483000000    -0.662000000
H     2.921000000    -1.564000000    -0.938000000
C     4.596000000    -0.795000000     1.384000000
C     4.870000000    -2.232000000     1.773000000
H     5.220000000    -2.255000000     2.807000000
H     5.532000000    -2.687000000     1.033000000
C     3.564000000    -3.055000000     1.766000000
C     3.029000000    -3.555000000     0.572000000
C     1.770000000    -4.191000000     0.538000000
H     1.280000000    -4.517000000    -0.377000000
C     1.018000000    -4.246000000     1.721000000
O    -0.227000000    -4.716000000     1.635000000
C    -1.308000000    -3.796000000     1.491000000
H    -0.912000000    -2.822000000     1.168000000
C    -2.219000000    -4.213000000     0.334000000
C    -3.550000000    -3.767000000     0.356000000
H    -3.851000000    -3.128000000     1.182000000
C    -1.792000000    -5.083000000    -0.694000000
H    -0.761000000    -5.416000000    -0.781000000
C    -2.679000000    -5.417000000    -1.744000000
O    -2.203000000    -6.047000000    -2.910000000
C    -3.977000000    -4.946000000    -1.705000000
H    -4.612000000    -5.229000000    -2.541000000
C    -4.445000000    -4.198000000    -0.606000000
O    -5.804000000    -3.845000000    -0.662000000
C    -6.274000000    -2.865000000     0.149000000
C    -6.077000000    -1.509000000    -0.193000000
H    -5.580000000    -1.295000000    -1.136000000
C    -6.988000000    -3.252000000     1.246000000
H    -6.976000000    -4.300000000     1.533000000
C    -7.531000000    -2.304000000     2.060000000
H    -8.116000000    -2.659000000     2.905000000
C    -7.416000000    -0.974000000     1.718000000
H    -7.972000000    -0.242000000     2.299000000
C    -6.595000000    -0.577000000     0.651000000
O    -6.514000000     0.758000000     0.459000000
C    -5.476000000     1.569000000     0.765000000
C    -5.639000000     2.893000000     0.447000000
H    -6.494000000     3.148000000    -0.173000000
C    -4.739000000     3.849000000     0.864000000
O    -4.863000000     5.139000000     0.415000000
C    -3.850000000     6.042000000     0.238000000
C    -3.009000000     5.742000000    -0.812000000
H    -2.967000000     4.808000000    -1.367000000
C    -3.810000000     7.307000000     0.849000000
H    -4.503000000     7.666000000     1.605000000
C    -2.900000000     8.300000000     0.423000000
H    -2.906000000     9.300000000     0.848000000
C    -1.934000000     7.927000000    -0.496000000
H    -1.174000000     8.675000000    -0.704000000
C    -1.967000000     6.672000000    -1.142000000
O    -1.117000000     6.401000000    -2.124000000
C     0.071000000     5.611000000    -1.973000000
C     0.694000000     5.216000000    -3.192000000
H     0.184000000     5.352000000    -4.143000000
C     1.795000000     4.357000000    -3.185000000
O     2.252000000     3.972000000    -4.379000000
C     3.362000000     3.142000000    -4.580000000
C     3.215000000     1.921000000    -5.240000000
H     2.263000000     1.453000000    -5.478000000
C     4.617000000     3.562000000    -4.174000000
H     4.854000000     4.465000000    -3.617000000
C     5.760000000     2.867000000    -4.546000000
H     6.665000000     3.285000000    -4.114000000
C     5.671000000     1.660000000    -5.163000000
H     6.566000000     1.067000000    -5.330000000
C     4.382000000     1.134000000    -5.453000000
O     4.251000000    -0.156000000    -5.844000000
C     3.767000000    -1.098000000    -4.990000000
C     2.735000000    -1.898000000    -5.414000000
H     2.267000000    -1.763000000    -6.386000000
C     2.175000000    -2.883000000    -4.588000000
O     1.199000000    -3.691000000    -5.172000000
C     0.704000000    -4.847000000    -4.690000000
C     1.360000000    -6.019000000    -4.937000000
H     2.254000000    -5.886000000    -5.540000000
C     0.853000000    -7.169000000    -4.454000000
H     1.336000000    -8.081000000    -4.795000000
C    -0.379000000    -7.189000000    -3.789000000
H    -0.894000000    -8.100000000    -3.493000000
C    -0.984000000    -5.963000000    -3.500000000
C    -0.390000000    -4.735000000    -3.803000000
H    -0.894000000    -3.778000000    -3.700000000
C    -2.101000000    -1.086000000    -1.130000000
H    -3.054000000    -1.559000000    -0.907000000
C    -1.328000000    -0.592000000    -0.133000000
H    -1.825000000    -0.548000000     0.832000000
C    -0.013000000    -0.135000000    -0.308000000
H     0.636000000     0.216000000     0.443000000
C     0.527000000    -0.167000000    -1.574000000
H     1.581000000     0.082000000    -1.665000000
C    -0.282000000    -0.612000000    -2.614000000
H     0.195000000    -0.722000000    -3.584000000
C    -1.591000000    -1.111000000    -2.451000000
C    -2.476000000    -1.649000000    -3.556000000
O    -2.068000000    -1.387000000    -4.645000000
O    -3.663000000    -1.892000000    -3.370000000
O    -8.706000000    -1.044000000    -4.394000000
H    -8.607000000    -0.252000000    -3.865000000
H    -7.843000000    -1.457000000    -4.370000000
O    -3.081000000     1.805000000    -1.667000000
H    -2.682000000     1.809000000    -2.537000000
H    -2.736000000     1.016000000    -1.249000000
O    -6.178000000    -2.171000000    -4.247000000
H    -6.153000000    -2.908000000    -4.857000000
H    -5.299000000    -2.143000000    -3.869000000
O    -3.070000000    -5.518000000    -5.677000000
H    -2.350000000    -5.756000000    -6.260000000
H    -3.108000000    -6.231000000    -5.039000000
O    -5.957000000    -4.673000000    -7.509000000
H    -5.558000000    -5.160000000    -8.231000000
H    -5.234000000    -4.173000000    -7.129000000
O    -1.884000000     3.453000000    -7.126000000
H    -2.700000000     3.691000000    -6.687000000
H    -1.791000000     2.514000000    -6.968000000
O    -3.954000000    -3.131000000    -6.170000000
H    -3.418000000    -2.471000000    -5.729000000
H    -3.482000000    -3.953000000    -6.033000000
O    -4.770000000     0.320000000    -4.721000000
H    -5.568000000    -0.148000000    -4.968000000
H    -4.362000000    -0.238000000    -4.059000000
O    -4.787000000     1.674000000    -7.474000000
H    -4.465000000     2.441000000    -7.000000000
H    -5.174000000     1.120000000    -6.797000000
O    -4.181000000     3.590000000    -5.493000000
H    -3.937000000     4.472000000    -5.213000000
H    -5.110000000     3.658000000    -5.715000000
O    -6.028000000    -6.304000000    -4.592000000
H    -5.411000000    -6.920000000    -4.196000000
H    -5.617000000    -6.054000000    -5.419000000
O    -0.365000000    -1.528000000    -9.357000000
H    -1.142000000    -1.902000000    -9.774000000
H    -0.609000000    -1.433000000    -8.436000000
O    -0.545000000    -2.087000000    -6.597000000
H     0.258000000    -2.444000000    -6.219000000
H    -1.152000000    -2.027000000    -5.859000000
O    -2.277000000     1.393000000    -4.630000000
H    -2.258000000     0.446000000    -4.767000000
H    -3.081000000     1.681000000    -5.061000000
O     0.459000000     0.653000000    -7.663000000
H     0.465000000     0.363000000    -8.575000000
H    -0.043000000    -0.019000000    -7.201000000
O    -3.737000000    -1.303000000    -8.461000000
H    -3.972000000    -1.961000000    -7.807000000
H    -4.056000000    -0.478000000    -8.096000000
O    -0.863000000    -5.947000000    -7.404000000
H    -0.388000000    -5.238000000    -6.970000000
H    -0.399000000    -6.742000000    -7.141000000
O    -8.310000000     1.364000000    -3.092000000
H    -8.671000000     2.234000000    -2.920000000
H    -7.373000000     1.455000000    -2.918000000
O    -5.492000000     2.072000000    -2.717000000
H    -5.258000000     1.592000000    -3.511000000
H    -4.723000000     1.991000000    -2.152000000
