215
-1481.34967
C    -2.676000000     3.952000000     2.500000000
H    -1.686000000     4.375000000     2.649000000
C    -2.933000000     2.679000000     2.952000000
C    -4.211000000     2.124000000     2.705000000
H    -4.374000000     1.133000000     3.122000000
C    -1.877000000     1.756000000     3.555000000
O    -0.916000000     2.631000000     4.244000000
H    -1.346000000     1.233000000     2.745000000
O    -2.330000000     0.791000000     4.587000000
C    -1.655000000    -0.445000000     4.491000000
C    -2.319000000    -1.426000000     3.800000000
H    -3.367000000    -1.272000000     3.556000000
C    -1.697000000    -2.669000000     3.566000000
O    -2.350000000    -3.574000000     2.802000000
C    -0.397000000    -2.920000000     4.061000000
C     0.407000000    -4.221000000     3.690000000
H     1.176000000    -4.297000000     4.462000000
C     1.051000000    -4.144000000     2.318000000
C     2.452000000    -3.911000000     2.249000000
H     2.913000000    -3.837000000     3.231000000
H    -0.215000000    -5.119000000     3.703000000
C     0.222000000    -1.910000000     4.799000000
H     1.209000000    -2.057000000     5.231000000
C    -0.356000000    -0.671000000     5.002000000
C     0.431000000     0.473000000     5.662000000
H     1.186000000     0.046000000     6.326000000
H    -0.199000000     1.075000000     6.319000000
C     1.090000000     1.308000000     4.546000000
C     2.394000000     0.955000000     4.183000000
H     2.844000000     0.138000000     4.742000000
C     0.408000000     2.404000000     3.937000000
C     1.051000000     3.090000000     2.912000000
H     0.570000000     3.884000000     2.348000000
C     2.379000000     2.743000000     2.608000000
O     2.877000000     3.413000000     1.499000000
C     2.840000000     2.760000000     0.229000000
C     2.564000000     3.659000000    -0.954000000
C     3.234000000     3.546000000    -2.164000000
H     4.139000000     2.948000000    -2.236000000
C     1.493000000     4.589000000    -0.831000000
H     1.004000000     4.748000000     0.126000000
O     4.198000000     2.213000000     0.107000000
H     2.091000000     1.958000000     0.309000000
C     3.058000000     1.676000000     3.209000000
C     4.447000000     1.354000000     2.869000000
H     4.953000000     0.898000000     3.723000000
H     5.012000000     2.281000000     2.750000000
C     4.604000000     0.417000000     1.681000000
C     4.619000000    -0.999000000     1.831000000
H     4.757000000    -1.459000000     2.806000000
C     4.492000000     0.899000000     0.372000000
C     4.490000000     0.061000000    -0.767000000
H     4.329000000     0.383000000    -1.793000000
C     4.530000000    -1.329000000    -0.600000000
O     4.169000000    -2.079000000    -1.703000000
C     2.840000000    -2.580000000    -1.887000000
C     2.410000000    -2.491000000    -3.365000000
C     2.847000000    -1.412000000    -4.135000000
H     3.280000000    -0.539000000    -3.652000000
C     1.691000000    -3.507000000    -3.988000000
H     1.381000000    -4.392000000    -3.438000000
O     2.852000000    -3.925000000    -1.408000000
H     2.098000000    -2.037000000    -1.283000000
C     4.579000000    -1.844000000     0.694000000
C     4.498000000    -3.380000000     0.829000000
H     5.062000000    -3.690000000     1.711000000
H     5.096000000    -3.959000000     0.122000000
C     3.022000000    -3.871000000     0.988000000
C     2.238000000    -4.091000000    -0.184000000
C     0.927000000    -4.539000000    -0.112000000
H     0.393000000    -4.751000000    -1.035000000
C     0.323000000    -4.563000000     1.135000000
O    -1.012000000    -4.747000000     1.187000000
C    -1.827000000    -3.568000000     1.428000000
H    -1.185000000    -2.688000000     1.270000000
C    -2.960000000    -3.382000000     0.397000000
C    -4.283000000    -2.831000000     0.724000000
H    -4.517000000    -2.530000000     1.742000000
C    -2.707000000    -3.567000000    -0.991000000
H    -1.754000000    -3.991000000    -1.296000000
C    -3.654000000    -3.300000000    -1.975000000
O    -3.346000000    -3.413000000    -3.278000000
C    -4.894000000    -2.731000000    -1.632000000
H    -5.583000000    -2.526000000    -2.448000000
C    -5.201000000    -2.461000000    -0.331000000
O    -6.486000000    -2.009000000    -0.041000000
C    -6.786000000    -1.144000000     0.929000000
C    -6.277000000     0.165000000     0.900000000
H    -5.685000000     0.599000000     0.098000000
C    -7.748000000    -1.527000000     1.909000000
H    -8.180000000    -2.519000000     1.809000000
C    -8.019000000    -0.738000000     3.039000000
H    -8.770000000    -0.946000000     3.797000000
C    -7.519000000     0.543000000     2.947000000
H    -7.912000000     1.260000000     3.664000000
C    -6.702000000     1.021000000     1.913000000
O    -6.435000000     2.397000000     1.868000000
C    -5.162000000     2.901000000     2.032000000
C    -4.856000000     4.152000000     1.551000000
H    -5.636000000     4.754000000     1.094000000
C    -3.621000000     4.710000000     1.841000000
O    -3.503000000     6.033000000     1.445000000
C    -2.351000000     6.544000000     0.892000000
C    -1.708000000     5.996000000    -0.216000000
H    -2.075000000     5.069000000    -0.649000000
C    -1.915000000     7.798000000     1.446000000
H    -2.428000000     8.313000000     2.254000000
C    -0.736000000     8.304000000     0.937000000
H    -0.360000000     9.261000000     1.289000000
C    -0.129000000     7.716000000    -0.176000000
H     0.820000000     8.109000000    -0.530000000
C    -0.678000000     6.646000000    -0.793000000
O    -0.049000000     6.212000000    -1.967000000
C     1.017000000     5.274000000    -1.969000000
C     1.646000000     5.131000000    -3.156000000
H     1.345000000     5.822000000    -3.939000000
C     2.765000000     4.282000000    -3.292000000
O     3.357000000     4.084000000    -4.501000000
C     3.980000000     2.882000000    -4.840000000
C     3.217000000     1.828000000    -5.391000000
H     2.144000000     1.872000000    -5.559000000
C     5.381000000     2.660000000    -4.682000000
H     5.923000000     3.449000000    -4.168000000
C     5.961000000     1.455000000    -5.082000000
H     6.997000000     1.238000000    -4.834000000
C     5.204000000     0.520000000    -5.677000000
H     5.672000000    -0.437000000    -5.897000000
C     3.868000000     0.703000000    -5.807000000
O     3.134000000    -0.360000000    -6.350000000
C     2.692000000    -1.423000000    -5.543000000
C     1.898000000    -2.355000000    -6.097000000
H     1.674000000    -2.299000000    -7.159000000
C     1.362000000    -3.372000000    -5.330000000
O     0.579000000    -4.323000000    -5.908000000
C    -0.539000000    -4.812000000    -5.197000000
C    -0.702000000    -6.170000000    -4.996000000
H    -0.016000000    -6.926000000    -5.370000000
C    -1.778000000    -6.656000000    -4.287000000
H    -1.855000000    -7.714000000    -4.052000000
C    -2.704000000    -5.751000000    -3.749000000
H    -3.458000000    -6.078000000    -3.037000000
C    -2.497000000    -4.361000000    -3.842000000
C    -1.434000000    -3.923000000    -4.661000000
H    -1.353000000    -2.853000000    -4.833000000
C    -2.380000000    -0.556000000    -1.476000000
H    -3.461000000    -0.611000000    -1.378000000
C    -1.605000000    -0.390000000    -0.368000000
H    -2.030000000    -0.437000000     0.631000000
C    -0.242000000    -0.111000000    -0.491000000
H     0.276000000     0.005000000     0.338000000
C     0.326000000     0.005000000    -1.787000000
H     1.393000000     0.207000000    -1.829000000
C    -0.453000000    -0.173000000    -2.920000000
H     0.050000000    -0.147000000    -3.883000000
C    -1.817000000    -0.377000000    -2.782000000
C    -2.776000000    -0.303000000    -3.968000000
O    -2.241000000     0.027000000    -5.013000000
O    -4.016000000    -0.478000000    -3.931000000
O    -1.371000000     2.924000000    -1.966000000
H    -0.563000000     2.527000000    -1.641000000
H    -1.974000000     2.188000000    -2.073000000
O    -6.296000000    -0.513000000    -8.746000000
H    -5.947000000    -0.934000000    -7.960000000
H    -5.728000000     0.245000000    -8.884000000
O    -0.744000000     4.526000000    -6.571000000
H    -0.628000000     3.606000000    -6.334000000
H    -1.160000000     4.920000000    -5.804000000
O    -5.221000000     4.861000000    -6.663000000
H    -6.108000000     4.530000000    -6.803000000
H    -4.776000000     4.159000000    -6.187000000
O    -4.263000000     2.360000000    -5.795000000
H    -4.745000000     2.212000000    -6.609000000
H    -3.597000000     1.672000000    -5.782000000
O    -8.155000000    -3.870000000    -1.996000000
H    -8.936000000    -3.819000000    -1.445000000
H    -7.563000000    -3.211000000    -1.632000000
O    -1.730000000     5.512000000    -4.118000000
H    -1.286000000     6.355000000    -4.211000000
H    -1.309000000     5.101000000    -3.364000000
O    -1.852000000    -3.720000000    -8.402000000
H    -1.726000000    -3.039000000    -7.741000000
H    -2.577000000    -3.400000000    -8.940000000
O    -6.966000000    -0.448000000    -3.717000000
H    -7.396000000    -0.749000000    -4.517000000
H    -6.031000000    -0.555000000    -3.894000000
O    -5.287000000     2.331000000    -8.910000000
H    -4.510000000     2.729000000    -9.303000000
H    -6.016000000     2.861000000    -9.232000000
O    -4.933000000    -1.219000000    -6.394000000
H    -4.085000000    -1.537000000    -6.702000000
H    -4.759000000    -0.886000000    -5.513000000
O    -2.164000000    -1.066000000    -7.172000000
H    -2.163000000    -0.562000000    -6.358000000
H    -2.217000000    -0.406000000    -7.863000000
O    -0.692000000     2.150000000    -5.382000000
H    -1.351000000     1.458000000    -5.332000000
H    -0.428000000     2.295000000    -4.473000000
O    -7.644000000     3.281000000    -2.357000000
H    -6.779000000     2.873000000    -2.409000000
H    -7.811000000     3.601000000    -3.244000000
O    -2.668000000     3.861000000    -8.280000000
H    -1.902000000     3.844000000    -7.706000000
H    -3.124000000     4.670000000    -8.047000000
O    -8.348000000     1.846000000    -5.701000000
H    -8.513000000     1.592000000    -6.609000000
H    -7.758000000     1.170000000    -5.367000000
O    -6.123000000    -3.521000000    -5.131000000
H    -5.280000000    -3.372000000    -4.704000000
H    -6.148000000    -2.880000000    -5.842000000
O    -2.539000000     0.768000000    -9.298000000
H    -1.901000000     0.284000000    -9.823000000
H    -2.150000000     1.635000000    -9.188000000
O    -5.312000000     2.237000000    -2.976000000
H    -5.590000000     1.324000000    -2.915000000
H    -4.798000000     2.278000000    -3.782000000
