215
-1458.51417
C    -3.074000000     3.218000000     1.043000000
H    -2.101000000     3.703000000     1.022000000
C    -3.287000000     2.205000000     1.921000000
C    -4.442000000     1.443000000     1.699000000
H    -4.627000000     0.554000000     2.296000000
C    -2.223000000     1.705000000     2.835000000
O    -1.504000000     2.821000000     3.465000000
H    -1.549000000     1.114000000     2.198000000
O    -2.652000000     0.912000000     3.935000000
C    -2.093000000    -0.332000000     4.232000000
C    -2.530000000    -1.493000000     3.584000000
H    -3.385000000    -1.439000000     2.914000000
C    -1.827000000    -2.660000000     3.783000000
O    -2.324000000    -3.647000000     3.009000000
C    -0.584000000    -2.639000000     4.438000000
C     0.377000000    -3.822000000     4.322000000
H     1.038000000    -3.843000000     5.191000000
C     1.287000000    -3.739000000     3.104000000
C     2.517000000    -3.095000000     3.079000000
H     2.904000000    -2.583000000     3.956000000
H    -0.133000000    -4.772000000     4.493000000
C    -0.198000000    -1.499000000     5.105000000
H     0.749000000    -1.516000000     5.637000000
C    -0.861000000    -0.311000000     4.886000000
C    -0.198000000     0.986000000     5.314000000
H     0.450000000     0.922000000     6.191000000
H    -0.842000000     1.773000000     5.712000000
C     0.583000000     1.828000000     4.326000000
C     1.961000000     1.865000000     4.210000000
H     2.534000000     1.259000000     4.907000000
C    -0.118000000     2.781000000     3.498000000
C     0.503000000     3.566000000     2.576000000
H    -0.048000000     4.144000000     1.838000000
C     1.876000000     3.506000000     2.509000000
O     2.494000000     4.195000000     1.553000000
C     2.633000000     3.560000000     0.264000000
C     2.268000000     4.433000000    -0.928000000
C     2.660000000     4.001000000    -2.206000000
H     3.333000000     3.153000000    -2.307000000
C     1.465000000     5.569000000    -0.816000000
H     1.180000000     5.901000000     0.179000000
O     4.001000000     3.070000000     0.116000000
H     1.945000000     2.706000000     0.183000000
C     2.621000000     2.648000000     3.291000000
C     4.092000000     2.496000000     3.134000000
H     4.434000000     2.153000000     4.113000000
H     4.579000000     3.463000000     2.991000000
C     4.181000000     1.454000000     1.981000000
C     4.367000000     0.146000000     2.353000000
H     4.531000000    -0.124000000     3.393000000
C     4.185000000     1.827000000     0.605000000
C     4.379000000     0.880000000    -0.353000000
H     4.423000000     1.210000000    -1.388000000
C     4.546000000    -0.423000000     0.041000000
O     4.604000000    -1.347000000    -0.953000000
C     3.320000000    -2.015000000    -1.212000000
C     2.967000000    -2.134000000    -2.684000000
C     3.406000000    -1.134000000    -3.583000000
H     4.177000000    -0.454000000    -3.231000000
C     2.207000000    -3.175000000    -3.232000000
H     1.806000000    -3.830000000    -2.462000000
O     3.304000000    -3.277000000    -0.531000000
H     2.515000000    -1.375000000    -0.822000000
C     4.498000000    -0.842000000     1.404000000
C     4.577000000    -2.218000000     1.961000000
H     4.980000000    -2.211000000     2.975000000
H     5.227000000    -2.805000000     1.308000000
C     3.243000000    -2.965000000     1.926000000
C     2.714000000    -3.363000000     0.725000000
C     1.469000000    -3.949000000     0.734000000
H     1.036000000    -4.254000000    -0.215000000
C     0.774000000    -4.241000000     1.887000000
O    -0.524000000    -4.779000000     1.785000000
C    -1.593000000    -3.831000000     1.702000000
H    -1.151000000    -2.873000000     1.390000000
C    -2.541000000    -4.168000000     0.612000000
C    -3.855000000    -3.661000000     0.574000000
H    -4.262000000    -2.961000000     1.300000000
C    -2.159000000    -5.021000000    -0.396000000
H    -1.119000000    -5.335000000    -0.409000000
C    -2.983000000    -5.432000000    -1.401000000
O    -2.553000000    -6.246000000    -2.464000000
C    -4.243000000    -4.897000000    -1.463000000
H    -4.877000000    -5.118000000    -2.318000000
C    -4.694000000    -3.946000000    -0.496000000
O    -5.894000000    -3.396000000    -0.553000000
C    -6.522000000    -2.427000000     0.211000000
C    -6.151000000    -1.094000000     0.075000000
H    -5.453000000    -0.953000000    -0.745000000
C    -7.405000000    -2.818000000     1.148000000
H    -7.680000000    -3.869000000     1.126000000
C    -8.075000000    -1.927000000     1.997000000
H    -8.769000000    -2.252000000     2.768000000
C    -7.788000000    -0.572000000     1.870000000
H    -8.151000000     0.081000000     2.660000000
C    -6.882000000    -0.171000000     0.864000000
O    -6.649000000     1.190000000     0.706000000
C    -5.445000000     1.844000000     0.745000000
C    -5.152000000     2.956000000    -0.059000000
H    -5.886000000     3.134000000    -0.840000000
C    -3.990000000     3.639000000     0.111000000
O    -3.636000000     4.572000000    -0.853000000
C    -2.933000000     5.758000000    -0.711000000
C    -1.837000000     5.982000000    -1.505000000
H    -1.632000000     5.192000000    -2.222000000
C    -3.264000000     6.596000000     0.411000000
H    -4.113000000     6.270000000     1.006000000
C    -2.454000000     7.668000000     0.683000000
H    -2.712000000     8.399000000     1.445000000
C    -1.381000000     7.940000000    -0.133000000
H    -0.764000000     8.834000000    -0.162000000
C    -1.068000000     7.070000000    -1.165000000
O     0.121000000     7.299000000    -1.818000000
C     1.010000000     6.308000000    -1.959000000
C     1.454000000     5.911000000    -3.209000000
H     1.126000000     6.501000000    -4.061000000
C     2.289000000     4.780000000    -3.345000000
O     2.539000000     4.278000000    -4.573000000
C     3.347000000     3.289000000    -4.941000000
C     2.899000000     2.007000000    -5.225000000
H     1.840000000     1.771000000    -5.163000000
C     4.709000000     3.591000000    -4.905000000
H     5.008000000     4.598000000    -4.626000000
C     5.673000000     2.647000000    -5.229000000
H     6.724000000     2.819000000    -5.012000000
C     5.166000000     1.368000000    -5.507000000
H     5.941000000     0.653000000    -5.770000000
C     3.828000000     1.049000000    -5.505000000
O     3.384000000    -0.180000000    -5.806000000
C     3.057000000    -1.157000000    -4.942000000
C     2.217000000    -2.183000000    -5.421000000
H     1.968000000    -2.227000000    -6.479000000
C     1.736000000    -3.158000000    -4.540000000
O     0.754000000    -4.029000000    -5.014000000
C     0.348000000    -5.149000000    -4.266000000
C     1.053000000    -6.302000000    -4.515000000
H     1.876000000    -6.323000000    -5.224000000
C     0.565000000    -7.453000000    -3.922000000
H     1.018000000    -8.411000000    -4.160000000
C    -0.584000000    -7.433000000    -3.143000000
H    -0.942000000    -8.361000000    -2.706000000
C    -1.227000000    -6.249000000    -2.859000000
C    -0.758000000    -5.077000000    -3.483000000
H    -1.284000000    -4.128000000    -3.413000000
C    -1.735000000    -0.692000000    -0.963000000
H    -2.672000000    -0.816000000    -0.425000000
C    -0.601000000    -0.262000000    -0.291000000
H    -0.535000000    -0.156000000     0.789000000
C     0.529000000     0.137000000    -0.993000000
H     1.330000000     0.644000000    -0.451000000
C     0.507000000     0.099000000    -2.397000000
H     1.283000000     0.550000000    -3.009000000
C    -0.571000000    -0.613000000    -2.976000000
H    -0.547000000    -0.765000000    -4.052000000
C    -1.736000000    -0.948000000    -2.326000000
C    -2.951000000    -1.363000000    -3.024000000
O    -2.731000000    -1.974000000    -4.053000000
O    -4.048000000    -1.041000000    -2.656000000
O    -8.634000000    -1.703000000    -3.811000000
H    -8.449000000    -0.785000000    -4.008000000
H    -7.799000000    -2.056000000    -3.505000000
O    -1.307000000     2.556000000    -2.466000000
H    -1.256000000     2.510000000    -3.420000000
H    -0.776000000     1.821000000    -2.161000000
O    -5.829000000    -2.891000000    -3.681000000
H    -5.190000000    -3.136000000    -4.350000000
H    -5.393000000    -2.209000000    -3.172000000
O    -2.515000000    -3.348000000    -8.030000000
H    -2.837000000    -3.449000000    -8.926000000
H    -2.055000000    -4.166000000    -7.846000000
O    -5.778000000     4.242000000    -5.302000000
H    -5.268000000     3.788000000    -4.630000000
H    -5.889000000     3.594000000    -5.997000000
O    -7.597000000    -1.331000000    -8.127000000
H    -7.219000000    -2.051000000    -7.623000000
H    -7.685000000    -0.616000000    -7.496000000
O    -4.163000000    -3.061000000    -5.933000000
H    -3.619000000    -2.719000000    -5.224000000
H    -3.617000000    -2.980000000    -6.715000000
O    -3.608000000     0.106000000    -5.661000000
H    -2.697000000    -0.128000000    -5.834000000
H    -3.891000000    -0.514000000    -4.988000000
O    -4.630000000     2.561000000    -7.170000000
H    -3.917000000     2.835000000    -6.593000000
H    -4.706000000     1.618000000    -7.026000000
O    -1.084000000    -1.190000000    -6.354000000
H    -1.498000000    -1.610000000    -7.108000000
H    -1.155000000    -1.836000000    -5.651000000
O    -1.301000000     2.102000000    -5.260000000
H    -2.183000000     1.752000000    -5.132000000
H    -0.943000000     1.589000000    -5.984000000
O     1.022000000     0.364000000    -7.157000000
H     1.877000000    -0.014000000    -6.951000000
H     0.392000000    -0.239000000    -6.763000000
O    -8.092000000     1.016000000    -5.970000000
H    -7.675000000     1.348000000    -5.175000000
H    -9.028000000     1.018000000    -5.768000000
O    -6.652000000    -3.659000000    -6.648000000
H    -5.827000000    -3.282000000    -6.342000000
H    -6.401000000    -4.493000000    -7.045000000
O    -3.995000000     3.083000000    -3.204000000
H    -4.126000000     3.883000000    -2.695000000
H    -3.137000000     2.762000000    -2.928000000
O    -7.636000000    -4.817000000    -2.897000000
H    -7.578000000    -5.017000000    -1.962000000
H    -7.067000000    -4.056000000    -3.015000000
O    -8.175000000     1.146000000    -3.295000000
H    -8.407000000     2.065000000    -3.158000000
H    -7.257000000     1.089000000    -3.032000000
O     0.167000000    -5.125000000    -7.605000000
H     0.553000000    -4.579000000    -8.290000000
H     0.512000000    -4.764000000    -6.788000000
O    -5.725000000     1.076000000    -2.765000000
H    -5.079000000     0.370000000    -2.762000000
H    -5.203000000     1.878000000    -2.754000000
