215
-1445.29963
C    -3.191000000     3.292000000     1.265000000
H    -2.209000000     3.747000000     1.159000000
C    -3.323000000     2.300000000     2.180000000
C    -4.454000000     1.576000000     2.307000000
H    -4.597000000     0.817000000     3.072000000
C    -2.154000000     1.971000000     3.121000000
O    -1.358000000     3.122000000     3.413000000
H    -1.578000000     1.318000000     2.447000000
O    -2.586000000     1.292000000     4.282000000
C    -1.916000000     0.055000000     4.473000000
C    -2.475000000    -1.055000000     3.986000000
H    -3.516000000    -1.036000000     3.674000000
C    -1.684000000    -2.130000000     3.670000000
O    -2.169000000    -3.169000000     2.951000000
C    -0.406000000    -2.188000000     4.243000000
C     0.475000000    -3.405000000     4.163000000
H     1.029000000    -3.489000000     5.100000000
C     1.351000000    -3.597000000     3.014000000
C     2.634000000    -3.041000000     2.894000000
H     3.041000000    -2.563000000     3.781000000
H    -0.160000000    -4.293000000     4.164000000
C     0.179000000    -1.060000000     4.851000000
H     1.196000000    -1.127000000     5.229000000
C    -0.577000000     0.114000000     4.886000000
C     0.108000000     1.363000000     5.374000000
H     0.853000000     1.079000000     6.121000000
H    -0.669000000     1.966000000     5.850000000
C     0.787000000     2.239000000     4.280000000
C     2.155000000     2.011000000     4.125000000
H     2.724000000     1.281000000     4.694000000
C     0.034000000     2.993000000     3.396000000
C     0.685000000     3.703000000     2.424000000
H     0.102000000     4.351000000     1.773000000
C     2.049000000     3.545000000     2.267000000
O     2.555000000     4.102000000     1.154000000
C     2.612000000     3.297000000    -0.062000000
C     2.069000000     3.886000000    -1.297000000
C     2.475000000     3.458000000    -2.573000000
H     3.327000000     2.786000000    -2.646000000
C     1.123000000     4.944000000    -1.184000000
H     0.791000000     5.291000000    -0.210000000
O     4.015000000     2.912000000    -0.120000000
H     1.990000000     2.424000000     0.186000000
C     2.818000000     2.654000000     3.077000000
C     4.279000000     2.371000000     2.844000000
H     4.817000000     1.995000000     3.717000000
H     4.839000000     3.255000000     2.533000000
C     4.476000000     1.347000000     1.781000000
C     4.639000000     0.029000000     2.178000000
H     4.667000000    -0.205000000     3.240000000
C     4.319000000     1.654000000     0.374000000
C     4.456000000     0.629000000    -0.569000000
H     4.234000000     0.890000000    -1.601000000
C     4.574000000    -0.659000000    -0.152000000
O     4.612000000    -1.630000000    -1.128000000
C     3.354000000    -2.324000000    -1.321000000
C     3.113000000    -2.364000000    -2.911000000
C     3.783000000    -1.458000000    -3.731000000
H     4.483000000    -0.731000000    -3.327000000
C     2.187000000    -3.247000000    -3.404000000
H     1.673000000    -3.974000000    -2.779000000
O     3.325000000    -3.581000000    -0.680000000
H     2.562000000    -1.712000000    -0.866000000
C     4.705000000    -0.946000000     1.248000000
C     4.749000000    -2.385000000     1.620000000
H     5.230000000    -2.483000000     2.596000000
H     5.358000000    -2.963000000     0.922000000
C     3.333000000    -3.004000000     1.679000000
C     2.756000000    -3.633000000     0.577000000
C     1.548000000    -4.209000000     0.707000000
H     0.993000000    -4.451000000    -0.196000000
C     0.782000000    -4.222000000     1.885000000
O    -0.540000000    -4.577000000     1.886000000
C    -1.494000000    -3.552000000     1.731000000
H    -1.005000000    -2.674000000     1.283000000
C    -2.539000000    -3.911000000     0.667000000
C    -3.812000000    -3.300000000     0.762000000
H    -4.205000000    -2.794000000     1.640000000
C    -2.229000000    -4.606000000    -0.489000000
H    -1.226000000    -5.008000000    -0.601000000
C    -3.122000000    -4.613000000    -1.574000000
O    -2.863000000    -5.194000000    -2.817000000
C    -4.424000000    -4.222000000    -1.370000000
H    -5.152000000    -4.250000000    -2.177000000
C    -4.753000000    -3.576000000    -0.223000000
O    -6.061000000    -3.163000000    -0.111000000
C    -6.574000000    -2.383000000     0.876000000
C    -6.250000000    -1.039000000     0.944000000
H    -5.519000000    -0.696000000     0.216000000
C    -7.306000000    -2.873000000     1.910000000
H    -7.538000000    -3.933000000     1.842000000
C    -7.847000000    -2.069000000     2.928000000
H    -8.386000000    -2.467000000     3.784000000
C    -7.636000000    -0.669000000     2.775000000
H    -8.263000000     0.000000000     3.359000000
C    -6.928000000    -0.120000000     1.742000000
O    -6.727000000     1.239000000     1.667000000
C    -5.540000000     1.861000000     1.444000000
C    -5.531000000     2.972000000     0.659000000
H    -6.292000000     3.304000000    -0.043000000
C    -4.315000000     3.670000000     0.514000000
O    -4.195000000     4.843000000    -0.289000000
C    -3.249000000     5.808000000    -0.236000000
C    -2.254000000     5.753000000    -1.225000000
H    -2.332000000     4.918000000    -1.917000000
C    -3.376000000     6.848000000     0.665000000
H    -4.212000000     6.858000000     1.359000000
C    -2.310000000     7.796000000     0.637000000
H    -2.230000000     8.547000000     1.418000000
C    -1.309000000     7.751000000    -0.340000000
H    -0.628000000     8.591000000    -0.441000000
C    -1.247000000     6.732000000    -1.245000000
O    -0.205000000     6.677000000    -2.218000000
C     0.553000000     5.568000000    -2.307000000
C     1.007000000     5.144000000    -3.520000000
H     0.562000000     5.570000000    -4.416000000
C     1.851000000     4.030000000    -3.682000000
O     2.090000000     3.609000000    -4.996000000
C     3.243000000     2.884000000    -5.356000000
C     3.112000000     1.464000000    -5.528000000
H     2.110000000     1.052000000    -5.446000000
C     4.495000000     3.510000000    -5.474000000
H     4.488000000     4.565000000    -5.212000000
C     5.588000000     2.730000000    -5.808000000
H     6.614000000     3.012000000    -6.028000000
C     5.455000000     1.363000000    -6.007000000
H     6.374000000     0.865000000    -6.304000000
C     4.236000000     0.709000000    -5.861000000
O     4.050000000    -0.656000000    -6.041000000
C     3.422000000    -1.500000000    -5.114000000
C     2.656000000    -2.530000000    -5.621000000
H     2.444000000    -2.624000000    -6.683000000
C     2.011000000    -3.440000000    -4.789000000
O     1.121000000    -4.397000000    -5.199000000
C     0.341000000    -5.211000000    -4.392000000
C     0.733000000    -6.547000000    -4.207000000
H     1.696000000    -6.834000000    -4.620000000
C    -0.045000000    -7.429000000    -3.497000000
H     0.196000000    -8.471000000    -3.304000000
C    -1.164000000    -6.894000000    -2.879000000
H    -1.729000000    -7.489000000    -2.167000000
C    -1.643000000    -5.626000000    -3.134000000
C    -0.870000000    -4.762000000    -3.887000000
H    -1.354000000    -3.816000000    -4.116000000
C    -1.951000000    -0.819000000    -0.798000000
H    -3.003000000    -1.088000000    -0.757000000
C    -1.261000000    -0.336000000     0.282000000
H    -1.826000000    -0.111000000     1.183000000
C     0.040000000     0.086000000     0.109000000
H     0.706000000     0.546000000     0.950000000
C     0.681000000     0.018000000    -1.184000000
H     1.649000000     0.499000000    -1.297000000
C    -0.049000000    -0.392000000    -2.287000000
H     0.459000000    -0.312000000    -3.245000000
C    -1.380000000    -0.893000000    -2.121000000
C    -2.185000000    -1.456000000    -3.291000000
O    -1.678000000    -1.458000000    -4.369000000
O    -3.337000000    -1.826000000    -3.152000000
O    -1.567000000     2.454000000    -4.725000000
H    -2.309000000     2.010000000    -4.314000000
H    -1.074000000     1.753000000    -5.151000000
O    -7.901000000     0.420000000    -4.235000000
H    -6.986000000     0.410000000    -3.956000000
H    -8.397000000     0.236000000    -3.438000000
O    -0.685000000    -4.731000000    -7.379000000
H    -1.122000000    -3.909000000    -7.157000000
H    -0.258000000    -5.003000000    -6.566000000
O    -4.194000000    -3.558000000    -4.746000000
H    -3.856000000    -2.790000000    -4.285000000
H    -3.577000000    -4.258000000    -4.528000000
O    -0.005000000    -0.804000000    -8.449000000
H     0.671000000    -1.253000000    -8.956000000
H     0.113000000     0.123000000    -8.659000000
O    -0.793000000     3.217000000    -7.298000000
H    -0.823000000     3.152000000    -6.343000000
H    -0.705000000     4.154000000    -7.472000000
O    -4.152000000    -2.693000000    -8.458000000
H    -3.544000000    -2.212000000    -9.018000000
H    -3.639000000    -2.911000000    -7.679000000
O    -5.778000000    -1.418000000    -2.312000000
H    -4.854000000    -1.487000000    -2.552000000
H    -5.888000000    -2.046000000    -1.598000000
O    -4.310000000     0.043000000    -5.790000000
H    -4.102000000     0.626000000    -5.061000000
H    -4.173000000    -0.838000000    -5.440000000
O    -7.526000000    -4.940000000    -3.409000000
H    -6.837000000    -5.545000000    -3.685000000
H    -7.363000000    -4.145000000    -3.916000000
O    -3.223000000     1.361000000    -8.097000000
H    -3.075000000     2.251000000    -7.776000000
H    -3.214000000     0.817000000    -7.309000000
O    -1.795000000    -2.511000000    -6.873000000
H    -1.284000000    -1.911000000    -7.416000000
H    -1.671000000    -2.190000000    -5.980000000
O    -0.544000000     0.332000000    -5.846000000
H    -0.927000000    -0.271000000    -5.209000000
H     0.026000000    -0.218000000    -6.383000000
O    -4.140000000     1.634000000    -3.515000000
H    -4.155000000     1.117000000    -2.710000000
H    -4.532000000     2.472000000    -3.269000000
O    -6.949000000    -2.238000000    -4.926000000
H    -6.596000000    -1.627000000    -4.278000000
H    -6.175000000    -2.626000000    -5.335000000
O    -3.145000000     4.628000000    -4.155000000
H    -2.599000000     3.879000000    -4.394000000
H    -3.920000000     4.239000000    -3.748000000
O    -5.572000000    -6.344000000    -4.517000000
H    -5.463000000    -6.984000000    -5.220000000
H    -5.180000000    -5.541000000    -4.861000000
O    -5.820000000    -0.440000000    -8.178000000
H    -5.608000000    -1.371000000    -8.239000000
H    -5.413000000    -0.154000000    -7.360000000
O    -8.750000000    -1.272000000    -2.319000000
H    -8.897000000    -2.070000000    -1.811000000
H    -7.879000000    -1.388000000    -2.700000000
