215
-1443.62269
C    -3.816000000     2.276000000     0.715000000
H    -3.121000000     3.113000000     0.732000000
C    -3.849000000     1.469000000     1.863000000
C    -4.896000000     0.473000000     1.949000000
H    -4.934000000    -0.192000000     2.808000000
C    -2.640000000     1.513000000     2.863000000
O    -2.179000000     2.811000000     3.287000000
H    -1.795000000     1.104000000     2.290000000
O    -2.829000000     0.707000000     4.011000000
C    -1.773000000    -0.150000000     4.371000000
C    -1.928000000    -1.511000000     3.880000000
H    -2.830000000    -1.870000000     3.390000000
C    -0.891000000    -2.388000000     4.132000000
O    -0.964000000    -3.581000000     3.474000000
C     0.316000000    -2.028000000     4.672000000
C     1.518000000    -2.985000000     4.695000000
H     2.063000000    -2.678000000     5.590000000
C     2.302000000    -2.812000000     3.390000000
C     3.506000000    -2.110000000     3.245000000
H     3.706000000    -1.435000000     4.073000000
H     1.197000000    -4.017000000     4.854000000
C     0.399000000    -0.726000000     5.133000000
H     1.348000000    -0.441000000     5.580000000
C    -0.612000000     0.255000000     4.947000000
C    -0.511000000     1.738000000     5.323000000
H     0.198000000     1.843000000     6.147000000
H    -1.486000000     2.143000000     5.600000000
C     0.042000000     2.565000000     4.150000000
C     1.414000000     2.773000000     4.009000000
H     2.057000000     2.348000000     4.775000000
C    -0.853000000     3.051000000     3.159000000
C    -0.389000000     3.834000000     2.078000000
H    -1.078000000     4.157000000     1.301000000
C     0.987000000     3.984000000     1.960000000
O     1.409000000     4.706000000     0.832000000
C     1.804000000     3.904000000    -0.265000000
C     1.182000000     4.391000000    -1.618000000
C     1.770000000     3.987000000    -2.824000000
H     2.577000000     3.261000000    -2.773000000
C     0.049000000     5.182000000    -1.673000000
H    -0.529000000     5.498000000    -0.808000000
O     3.272000000     3.792000000    -0.245000000
H     1.277000000     2.950000000    -0.123000000
C     1.911000000     3.437000000     2.905000000
C     3.408000000     3.541000000     2.637000000
H     4.019000000     3.597000000     3.541000000
H     3.686000000     4.542000000     2.300000000
C     3.931000000     2.459000000     1.638000000
C     4.373000000     1.261000000     2.122000000
H     4.243000000     1.054000000     3.181000000
C     3.912000000     2.622000000     0.232000000
C     4.366000000     1.600000000    -0.616000000
H     4.405000000     1.815000000    -1.680000000
C     4.837000000     0.424000000    -0.066000000
O     5.148000000    -0.526000000    -0.949000000
C     4.122000000    -1.602000000    -1.109000000
C     3.884000000    -1.938000000    -2.576000000
C     4.097000000    -0.974000000    -3.537000000
H     4.404000000     0.045000000    -3.313000000
C     3.382000000    -3.136000000    -2.991000000
H     3.214000000    -4.028000000    -2.393000000
O     4.454000000    -2.681000000    -0.266000000
H     3.189000000    -1.160000000    -0.730000000
C     4.885000000     0.239000000     1.342000000
C     5.417000000    -1.067000000     1.941000000
H     5.900000000    -0.879000000     2.901000000
H     6.166000000    -1.494000000     1.271000000
C     4.202000000    -2.039000000     2.038000000
C     3.831000000    -2.774000000     0.956000000
C     2.623000000    -3.525000000     1.035000000
H     2.353000000    -4.218000000     0.243000000
C     1.912000000    -3.499000000     2.191000000
O     0.760000000    -4.243000000     2.094000000
C    -0.478000000    -3.507000000     2.128000000
H    -0.315000000    -2.499000000     1.720000000
C    -1.614000000    -4.019000000     1.154000000
C    -2.903000000    -4.255000000     1.567000000
H    -3.261000000    -4.290000000     2.593000000
C    -1.242000000    -3.937000000    -0.175000000
H    -0.207000000    -3.723000000    -0.429000000
C    -2.182000000    -4.273000000    -1.155000000
O    -1.810000000    -4.203000000    -2.474000000
C    -3.468000000    -4.561000000    -0.781000000
H    -4.210000000    -4.779000000    -1.545000000
C    -3.816000000    -4.588000000     0.578000000
O    -5.063000000    -4.863000000     1.003000000
C    -5.784000000    -3.867000000     1.685000000
C    -5.744000000    -2.577000000     1.322000000
H    -4.992000000    -2.163000000     0.655000000
C    -6.763000000    -4.318000000     2.543000000
H    -6.679000000    -5.355000000     2.857000000
C    -7.679000000    -3.437000000     3.090000000
H    -8.426000000    -3.817000000     3.783000000
C    -7.755000000    -2.141000000     2.545000000
H    -8.542000000    -1.429000000     2.781000000
C    -6.795000000    -1.672000000     1.675000000
O    -6.933000000    -0.514000000     1.081000000
C    -5.935000000     0.474000000     0.997000000
C    -5.874000000     1.329000000    -0.088000000
H    -6.671000000     1.271000000    -0.825000000
C    -4.738000000     2.154000000    -0.248000000
O    -4.864000000     3.094000000    -1.251000000
C    -4.348000000     4.407000000    -1.257000000
C    -3.428000000     4.796000000    -2.200000000
H    -3.309000000     4.168000000    -3.080000000
C    -4.557000000     5.221000000    -0.120000000
H    -5.215000000     4.857000000     0.665000000
C    -3.803000000     6.404000000     0.096000000
H    -3.884000000     6.918000000     1.051000000
C    -2.770000000     6.781000000    -0.849000000
H    -2.087000000     7.609000000    -0.678000000
C    -2.717000000     6.018000000    -2.019000000
O    -1.705000000     6.163000000    -2.941000000
C    -0.505000000     5.480000000    -2.895000000
C     0.072000000     5.110000000    -4.042000000
H    -0.398000000     5.311000000    -5.002000000
C     1.254000000     4.357000000    -4.041000000
O     1.488000000     3.686000000    -5.282000000
C     2.644000000     3.082000000    -5.574000000
C     2.649000000     1.707000000    -5.538000000
H     1.813000000     1.072000000    -5.255000000
C     3.748000000     3.831000000    -5.956000000
H     3.734000000     4.918000000    -5.952000000
C     4.902000000     3.207000000    -6.404000000
H     5.792000000     3.794000000    -6.619000000
C     4.917000000     1.762000000    -6.435000000
H     5.801000000     1.174000000    -6.669000000
C     3.821000000     1.091000000    -5.881000000
O     3.850000000    -0.324000000    -5.988000000
C     3.711000000    -1.176000000    -4.904000000
C     3.183000000    -2.430000000    -5.273000000
H     2.921000000    -2.631000000    -6.308000000
C     3.060000000    -3.414000000    -4.333000000
O     2.447000000    -4.537000000    -4.623000000
C     1.432000000    -5.132000000    -3.853000000
C     1.482000000    -6.497000000    -3.603000000
H     2.210000000    -7.126000000    -4.109000000
C     0.471000000    -7.108000000    -2.915000000
H     0.512000000    -8.186000000    -2.778000000
C    -0.643000000    -6.359000000    -2.646000000
H    -1.528000000    -6.837000000    -2.234000000
C    -0.702000000    -4.951000000    -2.826000000
C     0.449000000    -4.304000000    -3.299000000
H     0.412000000    -3.233000000    -3.476000000
C    -1.721000000    -0.426000000    -1.101000000
H    -2.763000000    -0.686000000    -0.935000000
C    -0.871000000    -0.480000000    -0.021000000
H    -1.263000000    -0.726000000     0.962000000
C     0.465000000    -0.156000000    -0.181000000
H     1.153000000    -0.371000000     0.702000000
C     0.930000000     0.378000000    -1.380000000
H     1.964000000     0.675000000    -1.533000000
C     0.047000000     0.409000000    -2.467000000
H     0.341000000     0.703000000    -3.471000000
C    -1.296000000     0.016000000    -2.357000000
C    -2.187000000     0.062000000    -3.540000000
O    -1.677000000     0.238000000    -4.625000000
O    -3.337000000    -0.332000000    -3.415000000
O    -6.337000000    -0.667000000    -9.180000000
H    -6.395000000    -0.084000000    -8.423000000
H    -5.662000000    -1.302000000    -8.943000000
O    -5.050000000    -4.056000000    -5.858000000
H    -4.462000000    -3.302000000    -5.895000000
H    -5.919000000    -3.690000000    -6.022000000
O    -4.280000000     2.290000000    -4.676000000
H    -3.673000000     2.828000000    -5.185000000
H    -3.715000000     1.688000000    -4.191000000
O    -3.163000000     3.927000000    -6.842000000
H    -3.853000000     4.590000000    -6.843000000
H    -3.220000000     3.520000000    -7.707000000
O    -2.950000000    -2.141000000    -5.908000000
H    -2.739000000    -1.676000000    -5.098000000
H    -2.112000000    -2.495000000    -6.206000000
O     0.957000000     0.675000000    -9.708000000
H     1.847000000     0.859000000    -9.408000000
H     0.395000000     1.140000000    -9.089000000
O    -7.524000000    -3.146000000    -1.068000000
H    -7.227000000    -2.822000000    -0.217000000
H    -6.777000000    -3.007000000    -1.651000000
O    -7.003000000     3.145000000    -3.207000000
H    -6.492000000     3.674000000    -3.820000000
H    -6.419000000     3.015000000    -2.459000000
O    -5.160000000    -1.613000000    -1.843000000
H    -4.277000000    -1.406000000    -2.150000000
H    -5.730000000    -1.033000000    -2.348000000
O    -2.958000000    -5.413000000    -4.925000000
H    -2.453000000    -4.887000000    -4.304000000
H    -3.755000000    -4.904000000    -5.077000000
O    -3.606000000     0.555000000    -9.860000000
H    -2.684000000     0.633000000    -9.614000000
H    -3.714000000    -0.366000000   -10.094000000
O    -1.018000000    -0.024000000    -7.027000000
H    -1.352000000     0.117000000    -6.141000000
H    -1.067000000    -0.972000000    -7.154000000
O    -4.161000000    -2.220000000    -8.352000000
H    -3.391000000    -2.035000000    -8.890000000
H    -3.859000000    -2.104000000    -7.452000000
O    -5.437000000     1.555000000    -7.070000000
H    -4.735000000     1.673000000    -7.709000000
H    -5.098000000     1.950000000    -6.266000000
O    -7.446000000     0.255000000    -3.596000000
H    -6.768000000    -0.016000000    -4.215000000
H    -7.485000000     1.208000000    -3.686000000
O    -1.056000000    -2.419000000    -8.203000000
H    -1.032000000    -2.016000000    -9.071000000
H    -0.881000000    -3.347000000    -8.365000000
O    -0.038000000     2.256000000    -7.622000000
H    -0.036000000     2.644000000    -6.747000000
H    -0.527000000     1.439000000    -7.520000000
O    -0.747000000     5.234000000    -7.736000000
H    -1.621000000     4.950000000    -8.003000000
H    -0.240000000     4.425000000    -7.675000000
O    -5.406000000    -0.549000000    -5.207000000
H    -4.610000000    -0.547000000    -4.676000000
H    -5.264000000     0.142000000    -5.854000000
