215
-1414.57298
C    -4.272000000     2.460000000     1.651000000
H    -3.624000000     3.323000000     1.779000000
C    -4.025000000     1.379000000     2.468000000
C    -4.927000000     0.295000000     2.357000000
H    -4.654000000    -0.637000000     2.845000000
C    -2.711000000     1.210000000     3.217000000
O    -2.141000000     2.416000000     3.876000000
H    -1.914000000     0.911000000     2.519000000
O    -2.693000000     0.241000000     4.322000000
C    -1.738000000    -0.724000000     4.429000000
C    -1.873000000    -1.906000000     3.717000000
H    -2.747000000    -2.121000000     3.106000000
C    -0.836000000    -2.800000000     3.571000000
O    -1.084000000    -3.826000000     2.648000000
C     0.447000000    -2.515000000     4.107000000
C     1.599000000    -3.388000000     3.930000000
H     2.318000000    -3.132000000     4.711000000
C     2.193000000    -3.085000000     2.570000000
C     3.364000000    -2.214000000     2.482000000
H     3.612000000    -1.653000000     3.379000000
H     1.257000000    -4.422000000     4.002000000
C     0.537000000    -1.311000000     4.794000000
H     1.510000000    -1.110000000     5.234000000
C    -0.531000000    -0.447000000     5.067000000
C    -0.173000000     0.915000000     5.674000000
H     0.777000000     0.785000000     6.196000000
H    -0.984000000     1.215000000     6.342000000
C     0.118000000     1.949000000     4.575000000
C     1.502000000     2.142000000     4.306000000
H     2.216000000     1.653000000     4.964000000
C    -0.793000000     2.657000000     3.728000000
C    -0.324000000     3.516000000     2.773000000
H    -0.999000000     4.145000000     2.198000000
C     1.023000000     3.635000000     2.518000000
O     1.425000000     4.455000000     1.462000000
C     1.734000000     3.858000000     0.201000000
C     0.953000000     4.537000000    -0.944000000
C     1.423000000     4.285000000    -2.235000000
H     2.422000000     3.875000000    -2.362000000
C    -0.367000000     5.015000000    -0.860000000
H    -0.736000000     4.988000000     0.162000000
O     3.172000000     3.985000000     0.107000000
H     1.497000000     2.784000000     0.238000000
C     1.959000000     2.966000000     3.263000000
C     3.444000000     3.282000000     3.044000000
H     4.028000000     3.089000000     3.947000000
H     3.494000000     4.357000000     2.862000000
C     4.028000000     2.440000000     1.887000000
C     4.717000000     1.213000000     2.124000000
H     5.036000000     0.987000000     3.139000000
C     3.867000000     2.855000000     0.508000000
C     4.337000000     1.979000000    -0.484000000
H     4.296000000     2.240000000    -1.539000000
C     4.691000000     0.711000000    -0.251000000
O     4.890000000    -0.156000000    -1.325000000
C     3.815000000    -1.142000000    -1.616000000
C     3.612000000    -1.334000000    -3.121000000
C     4.053000000    -0.301000000    -3.959000000
H     4.613000000     0.552000000    -3.585000000
C     2.732000000    -2.318000000    -3.588000000
H     2.336000000    -3.074000000    -2.915000000
O     4.148000000    -2.436000000    -1.064000000
H     2.849000000    -0.788000000    -1.228000000
C     4.984000000     0.339000000     1.054000000
C     5.361000000    -1.145000000     1.274000000
H     5.831000000    -1.243000000     2.256000000
H     6.018000000    -1.436000000     0.452000000
C     4.077000000    -1.999000000     1.341000000
C     3.653000000    -2.680000000     0.208000000
C     2.673000000    -3.693000000     0.334000000
H     2.306000000    -4.152000000    -0.580000000
C     1.898000000    -3.883000000     1.529000000
O     0.785000000    -4.631000000     1.350000000
C    -0.442000000    -3.918000000     1.373000000
H    -0.295000000    -2.876000000     1.053000000
C    -1.280000000    -4.496000000     0.268000000
C    -2.702000000    -4.358000000     0.382000000
H    -3.056000000    -3.833000000     1.265000000
C    -0.783000000    -5.128000000    -0.849000000
H     0.271000000    -5.357000000    -0.985000000
C    -1.654000000    -5.580000000    -1.834000000
O    -1.158000000    -6.377000000    -2.823000000
C    -3.011000000    -5.529000000    -1.658000000
H    -3.699000000    -5.921000000    -2.402000000
C    -3.528000000    -4.841000000    -0.641000000
O    -4.893000000    -4.670000000    -0.532000000
C    -5.574000000    -4.087000000     0.503000000
C    -5.703000000    -2.630000000     0.459000000
H    -5.368000000    -2.026000000    -0.381000000
C    -6.186000000    -4.842000000     1.550000000
H    -6.100000000    -5.915000000     1.696000000
C    -7.020000000    -4.214000000     2.455000000
H    -7.546000000    -4.796000000     3.207000000
C    -7.136000000    -2.749000000     2.455000000
H    -7.820000000    -2.316000000     3.182000000
C    -6.508000000    -2.005000000     1.453000000
O    -6.939000000    -0.684000000     1.353000000
C    -6.085000000     0.394000000     1.592000000
C    -6.336000000     1.574000000     0.851000000
H    -7.207000000     1.607000000     0.202000000
C    -5.413000000     2.587000000     0.943000000
O    -5.737000000     3.797000000     0.357000000
C    -4.948000000     4.885000000     0.394000000
C    -3.951000000     5.009000000    -0.602000000
H    -3.708000000     4.131000000    -1.196000000
C    -5.297000000     5.968000000     1.148000000
H    -6.232000000     5.956000000     1.703000000
C    -4.462000000     7.080000000     1.041000000
H    -4.775000000     8.019000000     1.490000000
C    -3.411000000     7.257000000     0.073000000
H    -2.926000000     8.227000000     0.005000000
C    -3.185000000     6.198000000    -0.747000000
O    -2.244000000     6.220000000    -1.806000000
C    -1.064000000     5.539000000    -1.921000000
C    -0.584000000     5.249000000    -3.218000000
H    -1.215000000     5.443000000    -4.081000000
C     0.624000000     4.554000000    -3.323000000
O     0.960000000     4.232000000    -4.574000000
C     2.228000000     3.737000000    -4.872000000
C     2.479000000     2.435000000    -5.398000000
H     1.631000000     1.756000000    -5.444000000
C     3.333000000     4.612000000    -4.678000000
H     3.247000000     5.662000000    -4.411000000
C     4.629000000     4.129000000    -5.069000000
H     5.518000000     4.732000000    -4.903000000
C     4.779000000     2.876000000    -5.599000000
H     5.789000000     2.482000000    -5.673000000
C     3.739000000     2.042000000    -5.841000000
O     3.938000000     0.752000000    -6.204000000
C     3.669000000    -0.314000000    -5.293000000
C     2.968000000    -1.447000000    -5.795000000
H     2.732000000    -1.574000000    -6.848000000
C     2.460000000    -2.437000000    -4.955000000
O     1.616000000    -3.402000000    -5.459000000
C     1.429000000    -4.611000000    -4.804000000
C     2.519000000    -5.443000000    -4.592000000
H     3.459000000    -5.180000000    -5.071000000
C     2.466000000    -6.497000000    -3.738000000
H     3.255000000    -7.195000000    -3.469000000
C     1.244000000    -6.801000000    -3.137000000
H     1.103000000    -7.655000000    -2.479000000
C     0.080000000    -6.116000000    -3.522000000
C     0.156000000    -4.967000000    -4.319000000
H    -0.675000000    -4.292000000    -4.507000000
C    -2.311000000     0.103000000    -0.525000000
H    -3.271000000    -0.263000000    -0.171000000
C    -1.182000000    -0.309000000     0.234000000
H    -1.408000000    -0.757000000     1.199000000
C     0.124000000    -0.028000000    -0.059000000
H     0.863000000    -0.377000000     0.557000000
C     0.325000000     0.688000000    -1.294000000
H     1.356000000     0.778000000    -1.628000000
C    -0.753000000     1.079000000    -2.117000000
H    -0.627000000     1.466000000    -3.125000000
C    -2.082000000     0.733000000    -1.762000000
C    -3.235000000     0.926000000    -2.699000000
O    -3.109000000     1.234000000    -3.897000000
O    -4.356000000     0.718000000    -2.331000000
O    -6.305000000    -0.759000000    -3.602000000
H    -5.508000000    -0.405000000    -3.207000000
H    -6.139000000    -0.729000000    -4.544000000
O    -5.577000000     1.328000000    -6.815000000
H    -5.410000000     1.026000000    -7.708000000
H    -5.864000000     0.544000000    -6.347000000
O    -3.277000000     3.770000000    -4.496000000
H    -3.562000000     2.859000000    -4.433000000
H    -2.668000000     3.780000000    -5.234000000
O    -4.644000000    -3.614000000    -4.709000000
H    -4.241000000    -2.751000000    -4.620000000
H    -5.133000000    -3.568000000    -5.530000000
O    -8.390000000     0.578000000    -2.448000000
H    -7.612000000     0.209000000    -2.868000000
H    -8.068000000     1.351000000    -1.985000000
O    -3.399000000    -1.210000000    -5.239000000
H    -3.335000000    -0.662000000    -4.457000000
H    -2.702000000    -0.893000000    -5.813000000
O    -4.468000000     4.316000000    -7.885000000
H    -4.475000000     3.422000000    -7.544000000
H    -3.595000000     4.646000000    -7.674000000
O    -6.974000000     3.322000000    -5.106000000
H    -6.942000000     2.874000000    -4.261000000
H    -6.451000000     2.771000000    -5.689000000
O    -7.640000000    -3.762000000    -5.587000000
H    -7.100000000    -3.310000000    -4.938000000
H    -7.252000000    -4.634000000    -5.655000000
O    -5.752000000    -1.351000000    -6.242000000
H    -4.898000000    -1.524000000    -5.846000000
H    -5.752000000    -1.872000000    -7.046000000
O    -3.297000000    -1.570000000    -8.259000000
H    -3.836000000    -2.229000000    -8.696000000
H    -3.711000000    -0.736000000    -8.480000000
O    -5.948000000     2.810000000    -2.572000000
H    -5.489000000     2.004000000    -2.806000000
H    -5.642000000     3.012000000    -1.687000000
O    -5.377000000     5.378000000    -4.499000000
H    -6.054000000     4.707000000    -4.579000000
H    -4.562000000     4.886000000    -4.401000000
O    -2.059000000     5.622000000    -7.127000000
H    -1.144000000     5.346000000    -7.086000000
H    -2.026000000     6.575000000    -7.039000000
O    -2.099000000     1.009000000    -6.419000000
H    -2.302000000     1.185000000    -5.500000000
H    -2.853000000     1.350000000    -6.900000000
O    -1.758000000     2.614000000    -8.689000000
H    -1.491000000     2.045000000    -7.967000000
H    -2.158000000     2.021000000    -9.326000000
O    -6.385000000    -4.379000000    -2.761000000
H    -5.799000000    -4.285000000    -3.512000000
H    -5.805000000    -4.589000000    -2.030000000
O    -8.977000000     5.222000000    -3.173000000
H    -8.194000000     4.880000000    -3.604000000
H    -8.641000000     5.783000000    -2.474000000
O    -9.649000000    -1.267000000    -0.836000000
H    -9.062000000    -0.832000000    -1.455000000
H    -9.286000000    -2.147000000    -0.741000000
