215
-1459.44342
C    -4.722000000     1.219000000     1.976000000
H    -4.184000000     2.139000000     1.760000000
C    -4.131000000     0.347000000     2.967000000
C    -4.844000000    -0.892000000     3.299000000
H    -4.365000000    -1.620000000     3.950000000
C    -2.746000000     0.674000000     3.457000000
O    -2.568000000     2.077000000     3.705000000
H    -2.047000000     0.500000000     2.625000000
O    -2.374000000    -0.166000000     4.552000000
C    -1.106000000    -0.651000000     4.653000000
C    -0.950000000    -2.000000000     4.257000000
H    -1.781000000    -2.553000000     3.828000000
C     0.329000000    -2.457000000     4.098000000
O     0.416000000    -3.631000000     3.412000000
C     1.450000000    -1.693000000     4.414000000
C     2.865000000    -2.187000000     4.095000000
H     3.564000000    -1.753000000     4.813000000
C     3.331000000    -1.917000000     2.643000000
C     4.189000000    -0.791000000     2.442000000
H     4.498000000    -0.196000000     3.298000000
H     2.833000000    -3.266000000     4.262000000
C     1.281000000    -0.414000000     4.983000000
H     2.163000000     0.132000000     5.309000000
C    -0.018000000     0.134000000     5.040000000
C    -0.205000000     1.598000000     5.472000000
H     0.518000000     1.964000000     6.203000000
H    -1.226000000     1.617000000     5.862000000
C    -0.177000000     2.423000000     4.220000000
C     1.083000000     2.954000000     3.814000000
H     1.961000000     2.670000000     4.389000000
C    -1.336000000     2.685000000     3.447000000
C    -1.300000000     3.392000000     2.268000000
H    -2.239000000     3.477000000     1.728000000
C    -0.072000000     3.991000000     1.893000000
O    -0.051000000     4.740000000     0.709000000
C     0.568000000     4.113000000    -0.420000000
C    -0.230000000     4.014000000    -1.668000000
C     0.288000000     4.152000000    -2.975000000
H     1.342000000     4.367000000    -3.128000000
C    -1.592000000     3.662000000    -1.563000000
H    -2.084000000     3.588000000    -0.597000000
O     1.925000000     4.604000000    -0.640000000
H     0.700000000     3.036000000    -0.244000000
C     1.113000000     3.733000000     2.654000000
C     2.428000000     4.338000000     2.266000000
H     3.019000000     4.407000000     3.182000000
H     2.107000000     5.340000000     1.975000000
C     3.147000000     3.602000000     1.139000000
C     3.992000000     2.579000000     1.522000000
H     4.093000000     2.126000000     2.506000000
C     2.964000000     3.889000000    -0.196000000
C     3.594000000     3.117000000    -1.141000000
H     3.320000000     3.159000000    -2.192000000
C     4.531000000     2.140000000    -0.800000000
O     4.888000000     1.241000000    -1.812000000
C     4.195000000    -0.062000000    -1.861000000
C     3.962000000    -0.535000000    -3.292000000
C     3.754000000     0.422000000    -4.295000000
H     3.927000000     1.465000000    -4.044000000
C     3.816000000    -1.833000000    -3.602000000
H     3.897000000    -2.609000000    -2.845000000
O     4.971000000    -1.028000000    -1.116000000
H     3.257000000     0.122000000    -1.317000000
C     4.727000000     1.899000000     0.547000000
C     5.583000000     0.694000000     1.077000000
H     5.906000000     1.027000000     2.066000000
H     6.447000000     0.575000000     0.421000000
C     4.744000000    -0.536000000     1.266000000
C     4.492000000    -1.348000000     0.185000000
C     3.716000000    -2.508000000     0.360000000
H     3.573000000    -3.197000000    -0.469000000
C     3.097000000    -2.788000000     1.561000000
O     2.166000000    -3.782000000     1.663000000
C     0.743000000    -3.396000000     1.992000000
H     0.554000000    -2.363000000     1.666000000
C    -0.258000000    -4.047000000     1.056000000
C    -1.495000000    -4.498000000     1.530000000
H    -1.794000000    -4.520000000     2.575000000
C     0.053000000    -4.166000000    -0.317000000
H     1.043000000    -3.845000000    -0.631000000
C    -0.904000000    -4.636000000    -1.236000000
O    -0.710000000    -4.767000000    -2.606000000
C    -2.105000000    -5.152000000    -0.745000000
H    -2.877000000    -5.488000000    -1.433000000
C    -2.401000000    -5.025000000     0.630000000
O    -3.595000000    -5.534000000     1.078000000
C    -4.378000000    -5.096000000     2.165000000
C    -4.970000000    -3.827000000     2.158000000
H    -4.766000000    -3.195000000     1.297000000
C    -4.560000000    -5.950000000     3.296000000
H    -4.051000000    -6.911000000     3.317000000
C    -5.455000000    -5.644000000     4.278000000
H    -5.588000000    -6.303000000     5.132000000
C    -6.181000000    -4.467000000     4.097000000
H    -6.960000000    -4.269000000     4.829000000
C    -6.008000000    -3.562000000     3.065000000
O    -6.714000000    -2.370000000     3.037000000
C    -6.081000000    -1.174000000     2.732000000
C    -6.671000000    -0.220000000     1.849000000
H    -7.643000000    -0.429000000     1.410000000
C    -6.059000000     0.947000000     1.499000000
O    -6.716000000     1.810000000     0.689000000
C    -6.059000000     2.867000000     0.131000000
C    -5.381000000     2.596000000    -1.042000000
H    -5.505000000     1.615000000    -1.495000000
C    -5.910000000     4.095000000     0.791000000
H    -6.345000000     4.357000000     1.753000000
C    -5.103000000     5.095000000     0.210000000
H    -4.963000000     5.999000000     0.798000000
C    -4.406000000     4.821000000    -0.980000000
H    -3.662000000     5.509000000    -1.375000000
C    -4.568000000     3.567000000    -1.615000000
O    -3.759000000     3.305000000    -2.707000000
C    -2.400000000     3.606000000    -2.736000000
C    -1.813000000     3.809000000    -4.000000000
H    -2.359000000     3.557000000    -4.906000000
C    -0.503000000     4.051000000    -4.079000000
O     0.064000000     4.445000000    -5.293000000
C     1.332000000     4.112000000    -5.790000000
C     1.671000000     2.835000000    -5.882000000
H     0.868000000     2.125000000    -5.704000000
C     2.296000000     5.071000000    -6.209000000
H     2.011000000     6.120000000    -6.188000000
C     3.591000000     4.705000000    -6.528000000
H     4.257000000     5.464000000    -6.932000000
C     3.971000000     3.370000000    -6.581000000
H     4.948000000     2.942000000    -6.792000000
C     2.940000000     2.429000000    -6.390000000
O     3.104000000     1.045000000    -6.543000000
C     3.358000000     0.086000000    -5.567000000
C     3.242000000    -1.311000000    -5.885000000
H     3.037000000    -1.639000000    -6.901000000
C     3.396000000    -2.245000000    -4.870000000
O     3.244000000    -3.599000000    -5.126000000
C     2.442000000    -4.439000000    -4.464000000
C     2.765000000    -5.838000000    -4.522000000
H     3.653000000    -6.160000000    -5.059000000
C     2.088000000    -6.805000000    -3.810000000
H     2.464000000    -7.819000000    -3.697000000
C     0.965000000    -6.347000000    -3.113000000
H     0.408000000    -6.989000000    -2.434000000
C     0.527000000    -5.031000000    -3.125000000
C     1.268000000    -4.063000000    -3.823000000
H     0.993000000    -3.014000000    -3.894000000
C    -1.636000000    -0.805000000    -0.711000000
H    -2.605000000    -1.297000000    -0.710000000
C    -1.084000000    -0.603000000     0.556000000
H    -1.622000000    -0.972000000     1.426000000
C     0.128000000    -0.055000000     0.795000000
H     0.550000000     0.038000000     1.818000000
C     0.823000000     0.330000000    -0.347000000
H     1.788000000     0.780000000    -0.129000000
C     0.360000000     0.156000000    -1.673000000
H     0.906000000     0.564000000    -2.520000000
C    -0.891000000    -0.371000000    -1.817000000
C    -1.506000000    -0.467000000    -3.197000000
O    -0.933000000    -0.117000000    -4.233000000
O    -2.706000000    -0.845000000    -3.210000000
O    -4.468000000    -2.438000000    -2.386000000
H    -4.106000000    -3.303000000    -2.579000000
H    -3.791000000    -1.826000000    -2.674000000
O    -6.630000000    -1.924000000    -1.126000000
H    -6.611000000    -0.976000000    -1.256000000
H    -5.812000000    -2.236000000    -1.513000000
O    -3.145000000    -1.185000000    -8.251000000
H    -2.778000000    -1.642000000    -7.495000000
H    -3.057000000    -1.807000000    -8.973000000
O    -3.688000000     1.064000000    -5.190000000
H    -3.941000000     0.294000000    -5.700000000
H    -3.073000000     0.727000000    -4.538000000
O    -5.028000000     4.621000000    -7.010000000
H    -4.186000000     4.167000000    -6.982000000
H    -5.342000000     4.490000000    -7.905000000
O    -3.141000000     2.473000000    -7.565000000
H    -2.232000000     2.365000000    -7.844000000
H    -3.140000000     2.219000000    -6.642000000
O     0.542000000    -2.479000000    -6.994000000
H     0.574000000    -3.367000000    -7.351000000
H    -0.123000000    -2.522000000    -6.307000000
O    -1.860000000    -2.404000000    -5.497000000
H    -1.642000000    -1.627000000    -4.983000000
H    -2.637000000    -2.764000000    -5.069000000
O    -6.273000000     1.182000000    -6.399000000
H    -5.463000000     1.676000000    -6.523000000
H    -6.280000000     0.549000000    -7.118000000
O    -5.973000000    -1.121000000    -7.768000000
H    -5.071000000    -1.429000000    -7.848000000
H    -6.251000000    -1.416000000    -6.901000000
O    -1.805000000    -5.641000000    -5.078000000
H    -1.140000000    -5.315000000    -5.685000000
H    -1.420000000    -5.516000000    -4.211000000
O    -5.771000000     0.252000000    -3.579000000
H    -5.411000000     0.702000000    -4.343000000
H    -5.003000000    -0.081000000    -3.114000000
O    -6.421000000    -2.264000000    -5.241000000
H    -5.689000000    -2.794000000    -4.925000000
H    -6.961000000    -2.113000000    -4.466000000
O    -0.070000000     2.399000000    -8.689000000
H     0.518000000     1.907000000    -9.263000000
H    -0.061000000     1.913000000    -7.864000000
O    -0.416000000     0.499000000    -6.584000000
H    -0.582000000     0.287000000    -5.666000000
H    -0.198000000    -0.341000000    -6.988000000
O    -0.079000000    -5.355000000    -7.181000000
H    -0.249000000    -6.275000000    -6.978000000
H     0.838000000    -5.337000000    -7.457000000
O    -4.504000000    -4.208000000    -4.681000000
H    -4.023000000    -4.944000000    -5.061000000
H    -5.177000000    -4.618000000    -4.137000000
O    -4.947000000     5.261000000    -4.351000000
H    -4.922000000     5.056000000    -5.285000000
H    -4.973000000     4.408000000    -3.919000000
O    -5.384000000    -5.522000000    -2.464000000
H    -6.270000000    -5.536000000    -2.102000000
H    -4.917000000    -6.206000000    -1.983000000
