215
-1416.54282
C    -3.702000000     1.939000000     3.938000000
H    -3.118000000     2.855000000     3.920000000
C    -3.145000000     0.722000000     4.422000000
C    -3.912000000    -0.392000000     4.379000000
H    -3.470000000    -1.367000000     4.565000000
C    -1.625000000     0.660000000     4.337000000
O    -0.991000000     1.955000000     4.598000000
H    -1.431000000     0.302000000     3.316000000
O    -1.125000000    -0.477000000     5.132000000
C    -0.078000000    -1.089000000     4.750000000
C    -0.287000000    -2.293000000     4.087000000
H    -1.272000000    -2.747000000     4.156000000
C     0.810000000    -2.964000000     3.529000000
O     0.469000000    -3.986000000     2.631000000
C     2.113000000    -2.391000000     3.565000000
C     3.357000000    -3.059000000     2.980000000
H     4.194000000    -2.748000000     3.608000000
C     3.591000000    -2.722000000     1.527000000
C     4.479000000    -1.646000000     1.299000000
H     4.927000000    -1.039000000     2.082000000
H     3.460000000    -4.132000000     3.151000000
C     2.235000000    -1.171000000     4.158000000
H     3.195000000    -0.686000000     4.322000000
C     1.210000000    -0.526000000     4.840000000
C     1.552000000     0.809000000     5.410000000
H     2.584000000     0.871000000     5.762000000
H     0.968000000     1.034000000     6.305000000
C     1.397000000     1.930000000     4.291000000
C     2.498000000     2.435000000     3.616000000
H     3.507000000     2.102000000     3.842000000
C     0.137000000     2.458000000     3.978000000
C     0.010000000     3.460000000     3.020000000
H    -0.970000000     3.779000000     2.673000000
C     1.134000000     3.894000000     2.274000000
O     0.853000000     4.626000000     1.065000000
C     1.085000000     3.957000000    -0.215000000
C    -0.045000000     4.090000000    -1.267000000
C     0.159000000     4.346000000    -2.660000000
H     1.129000000     4.489000000    -3.129000000
C    -1.301000000     3.856000000    -0.747000000
H    -1.499000000     3.681000000     0.307000000
O     2.404000000     4.348000000    -0.640000000
H     1.123000000     2.874000000    -0.024000000
C     2.423000000     3.394000000     2.644000000
C     3.714000000     3.749000000     1.898000000
H     4.591000000     3.549000000     2.518000000
H     3.725000000     4.821000000     1.690000000
C     3.889000000     2.932000000     0.603000000
C     4.812000000     1.831000000     0.630000000
H     5.504000000     1.622000000     1.442000000
C     3.392000000     3.346000000    -0.620000000
C     3.691000000     2.626000000    -1.794000000
H     3.176000000     2.802000000    -2.735000000
C     4.487000000     1.460000000    -1.712000000
O     4.499000000     0.699000000    -2.800000000
C     3.683000000    -0.525000000    -2.703000000
C     3.071000000    -0.861000000    -4.035000000
C     2.738000000     0.187000000    -4.871000000
H     2.879000000     1.220000000    -4.565000000
C     2.720000000    -2.160000000    -4.454000000
H     2.948000000    -2.971000000    -3.768000000
O     4.422000000    -1.652000000    -2.293000000
H     2.850000000    -0.376000000    -2.001000000
C     5.042000000     1.046000000    -0.485000000
C     5.883000000    -0.272000000    -0.332000000
H     6.732000000    -0.218000000     0.353000000
H     6.374000000    -0.464000000    -1.288000000
C     4.841000000    -1.392000000    -0.039000000
C     4.254000000    -2.111000000    -1.031000000
C     3.246000000    -3.015000000    -0.837000000
H     2.794000000    -3.523000000    -1.685000000
C     2.858000000    -3.302000000     0.476000000
O     1.768000000    -4.077000000     0.617000000
C     0.556000000    -3.610000000     1.235000000
H     0.636000000    -2.513000000     1.214000000
C    -0.708000000    -3.931000000     0.474000000
C    -1.881000000    -4.278000000     1.141000000
H    -1.837000000    -4.471000000     2.210000000
C    -0.778000000    -3.819000000    -0.898000000
H     0.100000000    -3.603000000    -1.502000000
C    -1.938000000    -4.008000000    -1.553000000
O    -1.990000000    -3.975000000    -2.914000000
C    -3.092000000    -4.301000000    -0.938000000
H    -3.982000000    -4.522000000    -1.522000000
C    -3.109000000    -4.344000000     0.481000000
O    -4.192000000    -4.876000000     1.194000000
C    -4.754000000    -4.434000000     2.368000000
C    -4.952000000    -3.064000000     2.707000000
H    -4.968000000    -2.307000000     1.927000000
C    -5.049000000    -5.426000000     3.271000000
H    -4.734000000    -6.435000000     3.015000000
C    -5.676000000    -5.123000000     4.393000000
H    -5.848000000    -5.927000000     5.105000000
C    -6.013000000    -3.847000000     4.759000000
H    -6.508000000    -3.478000000     5.653000000
C    -5.531000000    -2.833000000     3.907000000
O    -6.006000000    -1.540000000     4.230000000
C    -5.226000000    -0.359000000     4.084000000
C    -5.895000000     0.864000000     3.807000000
H    -6.977000000     0.925000000     3.727000000
C    -5.039000000     1.979000000     3.593000000
O    -5.658000000     3.227000000     3.314000000
C    -5.094000000     3.988000000     2.339000000
C    -4.676000000     3.434000000     1.102000000
H    -4.576000000     2.355000000     1.013000000
C    -5.047000000     5.367000000     2.500000000
H    -5.397000000     5.833000000     3.418000000
C    -4.484000000     6.120000000     1.516000000
H    -4.419000000     7.195000000     1.661000000
C    -4.024000000     5.554000000     0.278000000
H    -3.673000000     6.269000000    -0.461000000
C    -4.183000000     4.196000000     0.042000000
O    -3.684000000     3.641000000    -1.086000000
C    -2.425000000     3.898000000    -1.650000000
C    -2.234000000     3.969000000    -3.028000000
H    -3.094000000     3.969000000    -3.692000000
C    -0.949000000     4.218000000    -3.502000000
O    -0.898000000     4.290000000    -4.878000000
C     0.172000000     3.937000000    -5.563000000
C     0.489000000     2.590000000    -5.780000000
H    -0.251000000     1.829000000    -5.545000000
C     1.070000000     4.975000000    -5.888000000
H     0.808000000     6.024000000    -5.779000000
C     2.267000000     4.629000000    -6.513000000
H     2.976000000     5.381000000    -6.851000000
C     2.556000000     3.268000000    -6.804000000
H     3.381000000     2.958000000    -7.441000000
C     1.632000000     2.276000000    -6.533000000
O     1.762000000     0.997000000    -6.982000000
C     2.100000000    -0.034000000    -6.108000000
C     1.697000000    -1.350000000    -6.430000000
H     1.147000000    -1.495000000    -7.356000000
C     2.071000000    -2.402000000    -5.655000000
O     1.760000000    -3.693000000    -5.980000000
C     0.990000000    -4.430000000    -5.179000000
C     1.094000000    -5.797000000    -5.256000000
H     1.852000000    -6.238000000    -5.898000000
C     0.152000000    -6.578000000    -4.568000000
H     0.196000000    -7.661000000    -4.643000000
C    -0.834000000    -6.025000000    -3.718000000
H    -1.531000000    -6.559000000    -3.077000000
C    -0.992000000    -4.578000000    -3.679000000
C    -0.075000000    -3.873000000    -4.441000000
H    -0.137000000    -2.788000000    -4.416000000
C    -2.459000000     0.353000000    -1.073000000
H    -3.443000000     0.813000000    -1.121000000
C    -1.866000000     0.177000000     0.181000000
H    -2.425000000     0.324000000     1.101000000
C    -0.577000000    -0.309000000     0.301000000
H    -0.150000000    -0.487000000     1.319000000
C     0.180000000    -0.611000000    -0.850000000
H     1.223000000    -0.896000000    -0.734000000
C    -0.371000000    -0.310000000    -2.098000000
H     0.151000000    -0.493000000    -3.033000000
C    -1.699000000     0.156000000    -2.269000000
C    -2.370000000     0.306000000    -3.576000000
O    -1.774000000     0.046000000    -4.558000000
O    -3.583000000     0.486000000    -3.652000000
O    -7.065000000     0.043000000    -3.191000000
H    -6.266000000     0.373000000    -3.603000000
H    -7.211000000     0.629000000    -2.449000000
O    -7.120000000     0.234000000     0.264000000
H    -7.492000000     1.081000000     0.511000000
H    -6.298000000     0.182000000     0.752000000
O    -3.889000000     1.352000000    -6.488000000
H    -4.220000000     0.455000000    -6.547000000
H    -3.550000000     1.424000000    -5.596000000
O    -4.604000000     1.167000000    -9.093000000
H    -4.410000000     1.270000000    -8.161000000
H    -4.617000000     2.061000000    -9.434000000
O    -4.657000000     3.977000000    -6.898000000
H    -4.045000000     3.242000000    -6.880000000
H    -5.521000000     3.572000000    -6.827000000
O    -7.103000000    -1.945000000    -1.258000000
H    -7.199000000    -1.428000000    -2.058000000
H    -7.258000000    -1.321000000    -0.549000000
O    -8.261000000     2.900000000    -3.525000000
H    -8.380000000     2.155000000    -4.113000000
H    -7.332000000     2.878000000    -3.295000000
O    -4.337000000    -3.198000000    -8.570000000
H    -4.165000000    -3.852000000    -7.892000000
H    -3.502000000    -3.104000000    -9.028000000
O    -1.910000000    -3.319000000    -7.578000000
H    -2.363000000    -3.482000000    -6.751000000
H    -1.471000000    -2.478000000    -7.449000000
O    -3.805000000    -2.309000000    -4.546000000
H    -3.197000000    -2.844000000    -4.035000000
H    -3.446000000    -1.423000000    -4.495000000
O    -5.529000000     2.577000000    -3.009000000
H    -4.808000000     1.972000000    -3.186000000
H    -5.190000000     3.161000000    -2.329000000
O    -5.027000000    -1.124000000    -6.873000000
H    -4.791000000    -1.576000000    -7.683000000
H    -4.589000000    -1.623000000    -6.184000000
O    -0.512000000     1.484000000    -9.630000000
H     0.203000000     1.718000000    -9.038000000
H    -0.341000000     1.992000000   -10.423000000
O    -1.572000000    -0.528000000    -7.072000000
H    -1.697000000    -0.468000000    -6.125000000
H    -1.602000000     0.379000000    -7.376000000
O    -2.145000000     6.512000000    -6.853000000
H    -1.452000000     6.501000000    -7.513000000
H    -2.203000000     5.605000000    -6.552000000
O    -6.976000000    -2.479000000    -4.351000000
H    -6.740000000    -3.091000000    -3.654000000
H    -6.581000000    -1.649000000    -4.084000000
O    -4.556000000    -4.414000000    -6.081000000
H    -5.070000000    -4.948000000    -5.475000000
H    -4.250000000    -3.677000000    -5.551000000
O    -1.512000000    -0.924000000   -10.064000000
H    -1.118000000    -0.052000000   -10.042000000
H    -2.157000000    -0.912000000    -9.356000000
O    -7.118000000     2.852000000    -7.178000000
H    -7.171000000     1.898000000    -7.237000000
H    -7.901000000     3.106000000    -6.689000000
