215
-1436.76054
C    -4.174000000     1.937000000     1.801000000
H    -3.540000000     2.808000000     1.658000000
C    -3.775000000     1.041000000     2.811000000
C    -4.581000000    -0.030000000     3.080000000
H    -4.366000000    -0.717000000     3.896000000
C    -2.460000000     1.191000000     3.526000000
O    -2.274000000     2.585000000     3.826000000
H    -1.730000000     0.915000000     2.752000000
O    -2.155000000     0.426000000     4.610000000
C    -1.058000000    -0.274000000     4.589000000
C    -1.142000000    -1.499000000     3.951000000
H    -2.093000000    -1.896000000     3.605000000
C    -0.016000000    -2.229000000     3.747000000
O    -0.112000000    -3.487000000     3.154000000
C     1.206000000    -1.802000000     4.294000000
C     2.436000000    -2.668000000     4.295000000
H     3.094000000    -2.472000000     5.144000000
C     3.155000000    -2.580000000     2.938000000
C     3.950000000    -1.442000000     2.781000000
H     4.177000000    -0.670000000     3.512000000
H     2.186000000    -3.726000000     4.393000000
C     1.324000000    -0.511000000     4.853000000
H     2.309000000    -0.095000000     5.053000000
C     0.190000000     0.267000000     4.943000000
C     0.241000000     1.685000000     5.429000000
H     1.075000000     1.958000000     6.079000000
H    -0.624000000     1.846000000     6.076000000
C     0.145000000     2.776000000     4.325000000
C     1.326000000     3.254000000     3.856000000
H     2.261000000     2.880000000     4.266000000
C    -1.018000000     3.154000000     3.713000000
C    -0.942000000     4.043000000     2.666000000
H    -1.827000000     4.298000000     2.088000000
C     0.251000000     4.559000000     2.165000000
O     0.233000000     5.022000000     0.893000000
C     0.632000000     4.165000000    -0.225000000
C    -0.300000000     4.391000000    -1.401000000
C    -0.014000000     3.702000000    -2.545000000
H     0.902000000     3.118000000    -2.507000000
C    -1.443000000     5.182000000    -1.411000000
H    -1.705000000     5.784000000    -0.545000000
O     2.072000000     4.419000000    -0.533000000
H     0.494000000     3.142000000     0.155000000
C     1.421000000     4.069000000     2.739000000
C     2.793000000     4.429000000     2.176000000
H     3.458000000     4.466000000     3.041000000
H     2.804000000     5.450000000     1.787000000
C     3.294000000     3.379000000     1.203000000
C     3.954000000     2.220000000     1.593000000
H     4.057000000     2.086000000     2.667000000
C     2.976000000     3.462000000    -0.181000000
C     3.356000000     2.482000000    -1.050000000
H     3.033000000     2.506000000    -2.088000000
C     4.163000000     1.404000000    -0.623000000
O     4.585000000     0.485000000    -1.559000000
C     3.900000000    -0.767000000    -1.625000000
C     3.671000000    -1.161000000    -3.090000000
C     3.438000000    -0.241000000    -4.115000000
H     3.591000000     0.810000000    -3.881000000
C     3.498000000    -2.530000000    -3.392000000
H     3.682000000    -3.286000000    -2.633000000
O     4.601000000    -1.788000000    -0.868000000
H     2.944000000    -0.583000000    -1.113000000
C     4.448000000     1.259000000     0.734000000
C     5.351000000     0.079000000     1.251000000
H     5.777000000     0.447000000     2.187000000
H     6.178000000    -0.085000000     0.557000000
C     4.546000000    -1.235000000     1.519000000
C     4.222000000    -2.107000000     0.440000000
C     3.347000000    -3.193000000     0.585000000
H     3.232000000    -3.804000000    -0.307000000
C     2.768000000    -3.408000000     1.859000000
O     1.730000000    -4.285000000     2.034000000
C     0.468000000    -3.618000000     1.864000000
H     0.714000000    -2.639000000     1.425000000
C    -0.438000000    -4.255000000     0.765000000
C    -1.779000000    -3.947000000     0.655000000
H    -2.168000000    -3.372000000     1.491000000
C     0.176000000    -5.007000000    -0.295000000
H     1.249000000    -5.166000000    -0.365000000
C    -0.684000000    -5.479000000    -1.361000000
O    -0.265000000    -6.356000000    -2.368000000
C    -2.021000000    -5.266000000    -1.337000000
H    -2.630000000    -5.686000000    -2.133000000
C    -2.585000000    -4.532000000    -0.314000000
O    -3.945000000    -4.565000000    -0.174000000
C    -4.666000000    -4.237000000     0.943000000
C    -5.177000000    -2.943000000     1.117000000
H    -5.039000000    -2.261000000     0.282000000
C    -4.806000000    -5.157000000     2.016000000
H    -4.500000000    -6.194000000     1.901000000
C    -5.460000000    -4.772000000     3.152000000
H    -5.776000000    -5.473000000     3.920000000
C    -6.005000000    -3.547000000     3.350000000
H    -6.486000000    -3.283000000     4.289000000
C    -5.826000000    -2.629000000     2.335000000
O    -6.441000000    -1.423000000     2.463000000
C    -5.700000000    -0.274000000     2.325000000
C    -6.046000000     0.582000000     1.281000000
H    -6.850000000     0.365000000     0.582000000
C    -5.299000000     1.729000000     1.019000000
O    -5.791000000     2.589000000     0.026000000
C    -5.440000000     3.917000000    -0.095000000
C    -4.832000000     4.333000000    -1.269000000
H    -4.558000000     3.540000000    -1.960000000
C    -5.432000000     4.774000000     1.024000000
H    -5.744000000     4.473000000     2.021000000
C    -4.921000000     6.028000000     0.954000000
H    -5.024000000     6.667000000     1.827000000
C    -4.378000000     6.507000000    -0.239000000
H    -4.273000000     7.574000000    -0.413000000
C    -4.330000000     5.646000000    -1.362000000
O    -3.550000000     5.899000000    -2.478000000
C    -2.410000000     5.135000000    -2.497000000
C    -2.079000000     4.306000000    -3.614000000
H    -2.781000000     4.232000000    -4.440000000
C    -0.854000000     3.683000000    -3.680000000
O    -0.537000000     2.980000000    -4.798000000
C     0.703000000     2.894000000    -5.214000000
C     1.216000000     1.690000000    -5.590000000
H     0.597000000     0.798000000    -5.543000000
C     1.427000000     4.054000000    -5.442000000
H     0.958000000     5.018000000    -5.261000000
C     2.717000000     3.978000000    -6.048000000
H     3.299000000     4.859000000    -6.308000000
C     3.182000000     2.765000000    -6.388000000
H     4.219000000     2.755000000    -6.712000000
C     2.503000000     1.584000000    -6.148000000
O     3.107000000     0.341000000    -6.324000000
C     3.148000000    -0.642000000    -5.377000000
C     3.154000000    -1.934000000    -5.677000000
H     2.959000000    -2.278000000    -6.689000000
C     3.240000000    -2.932000000    -4.717000000
O     3.196000000    -4.230000000    -5.069000000
C     2.647000000    -5.281000000    -4.367000000
C     3.335000000    -6.530000000    -4.362000000
H     4.214000000    -6.643000000    -4.992000000
C     2.801000000    -7.686000000    -3.731000000
H     3.217000000    -8.690000000    -3.747000000
C     1.610000000    -7.554000000    -2.996000000
H     1.120000000    -8.421000000    -2.560000000
C     0.945000000    -6.371000000    -2.976000000
C     1.444000000    -5.205000000    -3.602000000
H     0.891000000    -4.271000000    -3.543000000
C    -2.256000000    -1.047000000    -0.923000000
H    -3.204000000    -1.544000000    -1.112000000
C    -1.885000000    -0.549000000     0.307000000
H    -2.566000000    -0.715000000     1.138000000
C    -0.762000000     0.112000000     0.485000000
H    -0.240000000     0.259000000     1.408000000
C     0.110000000     0.265000000    -0.591000000
H     1.027000000     0.815000000    -0.396000000
C    -0.234000000    -0.101000000    -1.909000000
H     0.362000000     0.181000000    -2.773000000
C    -1.463000000    -0.743000000    -2.013000000
C    -2.000000000    -1.064000000    -3.428000000
O    -1.313000000    -0.976000000    -4.447000000
O    -3.189000000    -1.275000000    -3.603000000
O    -5.009000000    -3.255000000    -2.854000000
H    -4.726000000    -4.116000000    -3.162000000
H    -4.263000000    -2.681000000    -3.026000000
O    -7.021000000    -2.300000000    -4.374000000
H    -6.965000000    -1.345000000    -4.354000000
H    -6.295000000    -2.594000000    -3.825000000
O    -3.885000000    -1.071000000    -7.986000000
H    -3.652000000    -1.564000000    -8.773000000
H    -4.045000000    -1.742000000    -7.322000000
O    -2.328000000     0.503000000    -6.347000000
H    -2.807000000    -0.119000000    -6.896000000
H    -2.021000000    -0.020000000    -5.606000000
O    -1.151000000     2.106000000    -8.085000000
H    -0.964000000     1.272000000    -8.516000000
H    -1.431000000     1.862000000    -7.202000000
O    -7.141000000     0.611000000    -3.526000000
H    -6.188000000     0.695000000    -3.558000000
H    -7.465000000     1.367000000    -4.015000000
O    -4.738000000     4.280000000    -7.618000000
H    -4.231000000     4.494000000    -8.401000000
H    -4.331000000     3.483000000    -7.279000000
O     0.214000000    -2.906000000    -9.954000000
H    -0.023000000    -3.828000000   -10.060000000
H    -0.276000000    -2.619000000    -9.183000000
O    -7.162000000     3.173000000    -4.721000000
H    -7.670000000     3.123000000    -5.531000000
H    -6.260000000     3.003000000    -4.993000000
O    -3.844000000    -2.554000000    -5.733000000
H    -3.772000000    -1.886000000    -5.051000000
H    -3.755000000    -3.384000000    -5.264000000
O    -4.457000000     2.528000000    -5.368000000
H    -3.951000000     1.784000000    -5.694000000
H    -4.455000000     2.420000000    -4.417000000
O    -6.647000000     0.430000000    -8.213000000
H    -5.747000000     0.354000000    -7.895000000
H    -7.004000000    -0.455000000    -8.136000000
O    -7.618000000    -2.780000000    -0.880000000
H    -6.740000000    -2.721000000    -1.257000000
H    -8.086000000    -2.030000000    -1.246000000
O    -1.571000000    -6.081000000    -5.493000000
H    -0.855000000    -6.152000000    -6.124000000
H    -1.197000000    -6.393000000    -4.669000000
O    -4.507000000     0.968000000    -2.949000000
H    -3.979000000     0.224000000    -3.238000000
H    -4.674000000     0.797000000    -2.022000000
O    -7.523000000    -2.133000000    -7.076000000
H    -8.119000000    -2.843000000    -7.316000000
H    -7.513000000    -2.142000000    -6.119000000
O    -0.387000000    -0.363000000    -8.798000000
H     0.464000000    -0.457000000    -9.226000000
H    -0.347000000    -0.960000000    -8.051000000
O    -0.486000000    -2.415000000    -6.901000000
H    -0.872000000    -2.201000000    -6.052000000
H    -0.623000000    -3.358000000    -6.996000000
O    -4.180000000    -5.281000000    -4.483000000
H    -3.363000000    -5.615000000    -4.852000000
H    -4.649000000    -6.063000000    -4.192000000
