215
-1448.39368
C    -3.297000000     2.396000000     2.529000000
H    -2.641000000     3.071000000     1.985000000
C    -2.832000000     1.563000000     3.602000000
C    -3.672000000     0.611000000     4.182000000
H    -3.277000000    -0.091000000     4.911000000
C    -1.341000000     1.479000000     3.886000000
O    -0.749000000     2.830000000     4.031000000
H    -0.862000000     0.933000000     3.060000000
O    -1.109000000     0.648000000     5.051000000
C     0.003000000    -0.203000000     4.939000000
C    -0.271000000    -1.526000000     4.654000000
H    -1.319000000    -1.783000000     4.782000000
C     0.673000000    -2.358000000     4.240000000
O     0.256000000    -3.624000000     3.751000000
C     2.014000000    -2.037000000     4.169000000
C     3.078000000    -2.997000000     3.635000000
H     4.003000000    -2.739000000     4.155000000
C     3.346000000    -2.975000000     2.168000000
C     4.244000000    -2.128000000     1.653000000
H     4.822000000    -1.456000000     2.283000000
H     2.940000000    -4.013000000     4.011000000
C     2.319000000    -0.701000000     4.452000000
H     3.343000000    -0.376000000     4.288000000
C     1.324000000     0.262000000     4.810000000
C     1.718000000     1.764000000     5.041000000
H     2.714000000     1.824000000     5.483000000
H     1.186000000     2.177000000     5.901000000
C     1.633000000     2.613000000     3.806000000
C     2.817000000     2.780000000     3.119000000
H     3.753000000     2.426000000     3.544000000
C     0.422000000     3.068000000     3.367000000
C     0.339000000     3.817000000     2.273000000
H    -0.644000000     4.188000000     1.994000000
C     1.545000000     3.950000000     1.471000000
O     1.407000000     4.691000000     0.313000000
C     1.497000000     3.915000000    -0.937000000
C     0.414000000     4.346000000    -1.939000000
C     0.552000000     3.865000000    -3.264000000
H     1.448000000     3.325000000    -3.557000000
C    -0.751000000     4.968000000    -1.517000000
H    -0.906000000     5.309000000    -0.497000000
O     2.819000000     3.866000000    -1.491000000
H     1.217000000     2.885000000    -0.673000000
C     2.796000000     3.572000000     1.967000000
C     4.122000000     3.666000000     1.153000000
H     5.009000000     3.669000000     1.789000000
H     4.245000000     4.633000000     0.662000000
C     4.266000000     2.596000000     0.016000000
C     4.896000000     1.396000000     0.336000000
H     5.287000000     1.193000000     1.330000000
C     3.556000000     2.730000000    -1.190000000
C     3.653000000     1.703000000    -2.097000000
H     3.076000000     1.753000000    -3.017000000
C     4.319000000     0.516000000    -1.762000000
O     4.289000000    -0.460000000    -2.744000000
C     3.311000000    -1.484000000    -2.632000000
C     2.712000000    -1.846000000    -3.974000000
C     2.648000000    -0.881000000    -4.992000000
H     3.172000000     0.061000000    -4.854000000
C     1.968000000    -3.048000000    -4.144000000
H     1.957000000    -3.784000000    -3.344000000
O     3.865000000    -2.671000000    -1.983000000
H     2.485000000    -1.047000000    -2.051000000
C     4.919000000     0.314000000    -0.546000000
C     5.454000000    -1.078000000    -0.203000000
H     6.251000000    -1.009000000     0.539000000
H     5.862000000    -1.597000000    -1.073000000
C     4.439000000    -2.018000000     0.252000000
C     3.679000000    -2.808000000    -0.602000000
C     2.714000000    -3.682000000    -0.127000000
H     2.029000000    -4.309000000    -0.692000000
C     2.514000000    -3.677000000     1.279000000
O     1.397000000    -4.423000000     1.794000000
C     0.262000000    -3.709000000     2.227000000
H     0.504000000    -2.728000000     1.793000000
C    -1.019000000    -4.234000000     1.659000000
C    -2.211000000    -4.321000000     2.378000000
H    -2.194000000    -4.286000000     3.464000000
C    -1.159000000    -4.326000000     0.258000000
H    -0.235000000    -4.178000000    -0.296000000
C    -2.341000000    -4.472000000    -0.407000000
O    -2.464000000    -4.321000000    -1.804000000
C    -3.529000000    -4.596000000     0.323000000
H    -4.506000000    -4.597000000    -0.154000000
C    -3.437000000    -4.429000000     1.726000000
O    -4.560000000    -4.567000000     2.419000000
C    -4.871000000    -3.761000000     3.458000000
C    -5.225000000    -2.419000000     3.295000000
H    -5.084000000    -1.851000000     2.379000000
C    -5.079000000    -4.390000000     4.719000000
H    -4.852000000    -5.450000000     4.796000000
C    -5.440000000    -3.727000000     5.795000000
H    -5.484000000    -4.252000000     6.747000000
C    -5.651000000    -2.306000000     5.689000000
H    -5.805000000    -1.715000000     6.589000000
C    -5.628000000    -1.724000000     4.430000000
O    -5.872000000    -0.362000000     4.338000000
C    -5.020000000     0.586000000     3.737000000
C    -5.543000000     1.477000000     2.814000000
H    -6.559000000     1.509000000     2.429000000
C    -4.664000000     2.285000000     2.117000000
O    -5.139000000     3.082000000     1.122000000
C    -4.554000000     4.312000000     0.771000000
C    -4.030000000     4.505000000    -0.489000000
H    -4.126000000     3.659000000    -1.164000000
C    -4.669000000     5.367000000     1.674000000
H    -5.285000000     5.248000000     2.562000000
C    -4.080000000     6.585000000     1.295000000
H    -4.154000000     7.458000000     1.938000000
C    -3.501000000     6.809000000     0.054000000
H    -2.897000000     7.674000000    -0.207000000
C    -3.467000000     5.689000000    -0.878000000
O    -2.926000000     5.807000000    -2.136000000
C    -1.759000000     5.169000000    -2.468000000
C    -1.590000000     4.760000000    -3.808000000
H    -2.378000000     5.039000000    -4.504000000
C    -0.413000000     4.187000000    -4.196000000
O    -0.344000000     3.709000000    -5.488000000
C     0.758000000     3.244000000    -6.203000000
C     0.834000000     1.810000000    -6.306000000
H     0.196000000     1.095000000    -5.792000000
C     1.650000000     4.072000000    -6.876000000
H     1.535000000     5.151000000    -6.950000000
C     2.696000000     3.476000000    -7.541000000
H     3.519000000     4.055000000    -7.951000000
C     2.766000000     2.081000000    -7.659000000
H     3.592000000     1.697000000    -8.252000000
C     1.866000000     1.241000000    -7.024000000
O     1.924000000    -0.131000000    -7.188000000
C     1.876000000    -1.060000000    -6.120000000
C     1.178000000    -2.270000000    -6.278000000
H     0.545000000    -2.358000000    -7.158000000
C     1.333000000    -3.295000000    -5.350000000
O     0.683000000    -4.559000000    -5.469000000
C    -0.170000000    -5.193000000    -4.525000000
C    -0.055000000    -6.588000000    -4.419000000
H     0.611000000    -7.217000000    -5.005000000
C    -0.847000000    -7.259000000    -3.510000000
H    -0.681000000    -8.330000000    -3.433000000
C    -1.692000000    -6.504000000    -2.630000000
H    -2.368000000    -7.008000000    -1.944000000
C    -1.729000000    -5.095000000    -2.756000000
C    -0.964000000    -4.431000000    -3.697000000
H    -1.090000000    -3.352000000    -3.738000000
C    -2.494000000    -0.346000000    -0.141000000
H    -3.402000000    -0.724000000     0.322000000
C    -1.305000000    -0.557000000     0.443000000
H    -1.180000000    -1.168000000     1.333000000
C    -0.130000000     0.030000000    -0.001000000
H     0.769000000    -0.187000000     0.545000000
C    -0.125000000     0.764000000    -1.236000000
H     0.734000000     1.166000000    -1.767000000
C    -1.358000000     0.962000000    -1.874000000
H    -1.340000000     1.478000000    -2.830000000
C    -2.583000000     0.437000000    -1.294000000
C    -3.923000000     0.654000000    -1.922000000
O    -4.037000000     1.311000000    -2.906000000
O    -4.876000000    -0.032000000    -1.663000000
O    -7.229000000     1.321000000    -2.274000000
H    -6.386000000     0.890000000    -2.132000000
H    -7.032000000     2.037000000    -2.878000000
O    -7.845000000     0.605000000     0.401000000
H    -7.365000000     1.176000000    -0.199000000
H    -7.316000000    -0.191000000     0.450000000
O    -7.048000000     5.501000000    -5.072000000
H    -7.220000000     4.572000000    -5.225000000
H    -7.326000000     5.650000000    -4.168000000
O    -2.974000000     1.172000000    -5.162000000
H    -2.743000000     2.020000000    -5.542000000
H    -3.443000000     1.391000000    -4.357000000
O    -4.817000000     4.492000000    -6.914000000
H    -4.952000000     3.734000000    -7.482000000
H    -5.662000000     4.622000000    -6.483000000
O    -6.161000000    -1.533000000     0.074000000
H    -5.822000000    -0.832000000    -0.483000000
H    -6.741000000    -2.035000000    -0.498000000
O    -7.053000000    -3.513000000    -6.004000000
H    -6.630000000    -3.475000000    -6.862000000
H    -6.504000000    -2.968000000    -5.441000000
O    -5.645000000    -1.296000000    -4.100000000
H    -6.085000000    -0.594000000    -4.580000000
H    -5.550000000    -0.955000000    -3.210000000
O    -7.928000000    -1.932000000    -1.890000000
H    -7.898000000    -1.118000000    -2.394000000
H    -8.832000000    -1.988000000    -1.580000000
O    -9.839000000     0.828000000     2.300000000
H    -9.150000000     0.865000000     1.637000000
H   -10.100000000     1.741000000     2.425000000
O    -5.627000000     3.173000000    -3.411000000
H    -5.097000000     2.392000000    -3.252000000
H    -4.988000000     3.867000000    -3.572000000
O    -2.379000000     0.239000000    -8.208000000
H    -3.299000000     0.025000000    -8.052000000
H    -1.896000000    -0.324000000    -7.602000000
O    -5.712000000    -5.239000000    -4.044000000
H    -6.591000000    -4.884000000    -3.912000000
H    -5.142000000    -4.470000000    -4.045000000
O    -2.316000000    -1.387000000    -5.902000000
H    -3.003000000    -1.968000000    -5.576000000
H    -2.583000000    -0.515000000    -5.611000000
O    -7.752000000     3.203000000    -6.069000000
H    -8.121000000     3.902000000    -6.609000000
H    -8.489000000     2.615000000    -5.901000000
O    -6.490000000     0.589000000    -5.668000000
H    -6.586000000     0.675000000    -6.616000000
H    -6.349000000     1.484000000    -5.360000000
O    -8.259000000    -4.479000000    -3.078000000
H    -7.941000000    -3.640000000    -2.743000000
H    -9.042000000    -4.662000000    -2.559000000
O   -10.087000000     1.754000000    -1.655000000
H    -9.227000000     1.523000000    -2.007000000
H   -10.103000000     1.357000000    -0.784000000
O    -3.876000000    -3.238000000    -4.306000000
H    -3.428000000    -3.432000000    -3.483000000
H    -4.384000000    -2.447000000    -4.121000000
