215
-1458.00239
C    -3.167000000     3.791000000     2.084000000
H    -2.370000000     4.500000000     1.875000000
C    -2.995000000     2.728000000     2.905000000
C    -4.044000000     1.831000000     3.076000000
H    -3.870000000     0.910000000     3.627000000
C    -1.643000000     2.375000000     3.510000000
O    -0.835000000     3.563000000     3.614000000
H    -1.196000000     1.749000000     2.723000000
O    -1.703000000     1.551000000     4.664000000
C    -0.853000000     0.505000000     4.672000000
C    -1.425000000    -0.697000000     4.414000000
H    -2.483000000    -0.870000000     4.231000000
C    -0.532000000    -1.789000000     4.263000000
O    -1.078000000    -3.054000000     3.838000000
C     0.833000000    -1.624000000     4.549000000
C     1.821000000    -2.789000000     4.396000000
H     2.692000000    -2.609000000     5.029000000
C     2.364000000    -3.042000000     2.954000000
C     3.621000000    -2.505000000     2.570000000
H     4.088000000    -1.926000000     3.362000000
H     1.369000000    -3.708000000     4.776000000
C     1.368000000    -0.363000000     4.923000000
H     2.429000000    -0.163000000     5.051000000
C     0.509000000     0.731000000     4.916000000
C     1.126000000     2.106000000     5.180000000
H     1.987000000     1.879000000     5.814000000
H     0.456000000     2.685000000     5.819000000
C     1.450000000     2.842000000     3.843000000
C     2.688000000     2.657000000     3.284000000
H     3.409000000     2.035000000     3.808000000
C     0.464000000     3.522000000     3.109000000
C     0.787000000     4.139000000     1.886000000
H     0.077000000     4.644000000     1.236000000
C     1.983000000     3.936000000     1.311000000
O     2.078000000     4.361000000    -0.017000000
C     2.136000000     3.279000000    -1.015000000
C     1.279000000     3.512000000    -2.239000000
C     1.278000000     2.667000000    -3.324000000
H     2.080000000     1.933000000    -3.328000000
C     0.270000000     4.498000000    -2.178000000
H     0.277000000     5.306000000    -1.452000000
O     3.527000000     2.927000000    -1.461000000
H     1.799000000     2.410000000    -0.430000000
C     2.972000000     3.243000000     2.043000000
C     4.309000000     2.985000000     1.440000000
H     4.974000000     2.832000000     2.291000000
H     4.621000000     3.837000000     0.831000000
C     4.432000000     1.748000000     0.499000000
C     4.866000000     0.511000000     1.083000000
H     5.122000000     0.394000000     2.133000000
C     4.148000000     1.815000000    -0.853000000
C     4.192000000     0.695000000    -1.691000000
H     3.960000000     0.783000000    -2.750000000
C     4.566000000    -0.538000000    -1.127000000
O     4.528000000    -1.590000000    -1.928000000
C     3.511000000    -2.573000000    -1.771000000
C     2.946000000    -2.895000000    -3.144000000
C     3.202000000    -2.063000000    -4.256000000
H     3.781000000    -1.143000000    -4.259000000
C     2.089000000    -4.038000000    -3.361000000
H     1.774000000    -4.697000000    -2.556000000
O     3.828000000    -3.680000000    -0.886000000
H     2.592000000    -2.138000000    -1.352000000
C     4.913000000    -0.630000000     0.263000000
C     5.327000000    -1.966000000     0.876000000
H     5.993000000    -1.729000000     1.708000000
H     5.978000000    -2.515000000     0.194000000
C     4.157000000    -2.732000000     1.320000000
C     3.365000000    -3.526000000     0.425000000
C     2.066000000    -3.953000000     0.760000000
H     1.478000000    -4.492000000     0.023000000
C     1.613000000    -3.792000000     2.079000000
O     0.370000000    -4.261000000     2.370000000
C    -0.719000000    -3.339000000     2.431000000
H    -0.363000000    -2.433000000     1.920000000
C    -2.004000000    -3.750000000     1.688000000
C    -3.277000000    -3.674000000     2.258000000
H    -3.261000000    -3.498000000     3.331000000
C    -1.893000000    -4.110000000     0.329000000
H    -0.895000000    -4.154000000    -0.099000000
C    -3.062000000    -4.299000000    -0.428000000
O    -2.869000000    -4.409000000    -1.788000000
C    -4.297000000    -4.101000000     0.100000000
H    -5.251000000    -4.207000000    -0.411000000
C    -4.383000000    -3.740000000     1.456000000
O    -5.628000000    -3.521000000     1.959000000
C    -5.869000000    -2.463000000     2.828000000
C    -6.000000000    -1.145000000     2.373000000
H    -5.845000000    -1.006000000     1.306000000
C    -5.869000000    -2.669000000     4.229000000
H    -5.985000000    -3.648000000     4.686000000
C    -6.060000000    -1.570000000     5.065000000
H    -5.967000000    -1.726000000     6.136000000
C    -6.161000000    -0.267000000     4.559000000
H    -6.289000000     0.618000000     5.178000000
C    -6.163000000    -0.068000000     3.193000000
O    -6.380000000     1.170000000     2.644000000
C    -5.324000000     2.089000000     2.462000000
C    -5.474000000     3.241000000     1.689000000
H    -6.483000000     3.399000000     1.318000000
C    -4.382000000     4.060000000     1.453000000
O    -4.495000000     5.211000000     0.694000000
C    -3.505000000     5.911000000     0.011000000
C    -2.878000000     5.381000000    -1.131000000
H    -2.934000000     4.331000000    -1.408000000
C    -3.404000000     7.292000000     0.222000000
H    -3.940000000     7.710000000     1.070000000
C    -2.647000000     8.062000000    -0.613000000
H    -2.643000000     9.132000000    -0.421000000
C    -1.997000000     7.499000000    -1.688000000
H    -1.508000000     8.215000000    -2.343000000
C    -2.154000000     6.154000000    -1.998000000
O    -1.650000000     5.652000000    -3.187000000
C    -0.678000000     4.656000000    -3.216000000
C    -0.586000000     3.825000000    -4.336000000
H    -1.374000000     3.920000000    -5.079000000
C     0.496000000     2.944000000    -4.441000000
O     0.390000000     1.964000000    -5.448000000
C     1.524000000     1.576000000    -6.109000000
C     1.736000000     0.246000000    -6.287000000
H     0.925000000    -0.438000000    -6.050000000
C     2.504000000     2.524000000    -6.494000000
H     2.431000000     3.529000000    -6.085000000
C     3.733000000     2.035000000    -7.028000000
H     4.539000000     2.705000000    -7.315000000
C     3.924000000     0.641000000    -7.092000000
H     4.818000000     0.375000000    -7.649000000
C     2.961000000    -0.267000000    -6.715000000
O     3.167000000    -1.630000000    -6.615000000
C     2.734000000    -2.407000000    -5.568000000
C     1.956000000    -3.577000000    -5.749000000
H     1.523000000    -3.789000000    -6.723000000
C     1.620000000    -4.322000000    -4.647000000
O     0.706000000    -5.416000000    -4.797000000
C    -0.314000000    -5.811000000    -3.881000000
C    -0.512000000    -7.150000000    -3.734000000
H     0.015000000    -7.854000000    -4.374000000
C    -1.488000000    -7.598000000    -2.840000000
H    -1.615000000    -8.674000000    -2.754000000
C    -2.197000000    -6.696000000    -2.113000000
H    -2.912000000    -7.015000000    -1.358000000
C    -1.964000000    -5.345000000    -2.307000000
C    -1.011000000    -4.833000000    -3.210000000
H    -0.805000000    -3.773000000    -3.334000000
C    -3.366000000     0.387000000    -0.429000000
H    -4.365000000     0.374000000    -0.002000000
C    -2.332000000     0.107000000     0.448000000
H    -2.556000000    -0.015000000     1.505000000
C    -0.966000000     0.079000000     0.076000000
H    -0.171000000     0.135000000     0.836000000
C    -0.732000000     0.073000000    -1.329000000
H     0.287000000     0.007000000    -1.702000000
C    -1.790000000     0.203000000    -2.250000000
H    -1.626000000     0.283000000    -3.322000000
C    -3.091000000     0.480000000    -1.810000000
C    -4.204000000     0.716000000    -2.791000000
O    -4.162000000     0.600000000    -4.010000000
O    -5.343000000     0.800000000    -2.293000000
O    -7.901000000    -0.293000000    -0.496000000
H    -7.071000000    -0.099000000    -0.930000000
H    -8.549000000     0.226000000    -0.972000000
O    -4.901000000     3.838000000    -3.678000000
H    -4.667000000     3.202000000    -3.002000000
H    -5.072000000     3.309000000    -4.456000000
O    -1.856000000     0.963000000    -7.157000000
H    -2.423000000     1.706000000    -7.365000000
H    -1.124000000     1.349000000    -6.675000000
O    -7.606000000     5.897000000    -4.625000000
H    -7.284000000     5.042000000    -4.909000000
H    -8.166000000     6.193000000    -5.343000000
O    -4.860000000     6.376000000    -4.691000000
H    -5.815000000     6.363000000    -4.639000000
H    -4.580000000     5.643000000    -4.142000000
O    -3.127000000     3.513000000    -7.357000000
H    -3.267000000     3.506000000    -8.304000000
H    -4.004000000     3.606000000    -6.986000000
O    -5.483000000     0.309000000    -7.577000000
H    -6.170000000     0.155000000    -8.225000000
H    -4.717000000    -0.146000000    -7.928000000
O    -5.056000000    -2.139000000    -3.261000000
H    -5.196000000    -1.192000000    -3.272000000
H    -4.200000000    -2.250000000    -2.848000000
O    -8.220000000    -1.143000000    -5.786000000
H    -7.895000000    -0.448000000    -5.213000000
H    -9.172000000    -1.095000000    -5.704000000
O    -5.342000000     2.062000000    -5.637000000
H    -4.813000000     1.571000000    -5.009000000
H    -5.377000000     1.501000000    -6.412000000
O    -7.237000000    -3.408000000    -4.559000000
H    -6.417000000    -3.210000000    -4.105000000
H    -7.408000000    -2.632000000    -5.093000000
O    -7.390000000     3.098000000    -1.630000000
H    -6.822000000     3.867000000    -1.654000000
H    -6.837000000     2.381000000    -1.941000000
O    -2.890000000    -1.365000000    -5.333000000
H    -3.391000000    -0.723000000    -4.829000000
H    -2.434000000    -0.847000000    -5.996000000
O    -9.349000000     3.424000000     0.122000000
H    -8.837000000     4.212000000     0.303000000
H    -8.820000000     2.934000000    -0.507000000
O    -6.507000000     4.221000000    -6.477000000
H    -7.122000000     3.971000000    -7.166000000
H    -6.137000000     3.392000000    -6.173000000
O    -9.578000000     1.059000000    -2.294000000
H    -8.963000000     1.075000000    -3.026000000
H   -10.068000000     1.877000000    -2.373000000
O    -3.563000000    -4.041000000    -6.106000000
H    -2.814000000    -4.233000000    -6.669000000
H    -3.407000000    -3.149000000    -5.796000000
O    -7.355000000     0.901000000    -3.979000000
H    -6.925000000     1.373000000    -4.693000000
H    -6.641000000     0.658000000    -3.389000000
O    -7.525000000    -3.034000000    -1.109000000
H    -7.828000000    -2.138000000    -0.961000000
H    -6.783000000    -2.941000000    -1.706000000
