215
-1460.94148
C    -3.042000000     3.738000000     2.407000000
H    -2.254000000     4.460000000     2.203000000
C    -2.734000000     2.542000000     3.115000000
C    -3.822000000     1.693000000     3.344000000
H    -3.758000000     0.895000000     4.079000000
C    -1.369000000     2.205000000     3.708000000
O    -0.622000000     3.426000000     4.026000000
H    -0.810000000     1.701000000     2.906000000
O    -1.384000000     1.311000000     4.817000000
C    -0.599000000     0.214000000     4.743000000
C    -1.145000000    -0.967000000     4.285000000
H    -2.209000000    -1.074000000     4.090000000
C    -0.408000000    -2.099000000     4.053000000
O    -0.969000000    -3.177000000     3.445000000
C     0.992000000    -1.969000000     4.291000000
C     2.018000000    -3.144000000     4.156000000
H     2.890000000    -3.168000000     4.813000000
C     2.417000000    -3.240000000     2.704000000
C     3.635000000    -2.630000000     2.401000000
H     4.110000000    -2.061000000     3.195000000
H     1.497000000    -4.067000000     4.419000000
C     1.556000000    -0.753000000     4.691000000
H     2.618000000    -0.796000000     4.919000000
C     0.779000000     0.399000000     4.834000000
C     1.378000000     1.789000000     5.292000000
H     2.254000000     1.671000000     5.935000000
H     0.661000000     2.230000000     5.988000000
C     1.653000000     2.646000000     4.087000000
C     2.876000000     2.559000000     3.420000000
H     3.637000000     1.847000000     3.728000000
C     0.666000000     3.483000000     3.551000000
C     0.816000000     4.026000000     2.304000000
H    -0.044000000     4.462000000     1.801000000
C     2.002000000     3.918000000     1.628000000
O     1.995000000     4.252000000     0.280000000
C     2.048000000     3.203000000    -0.706000000
C     1.040000000     3.450000000    -1.846000000
C     1.287000000     2.839000000    -3.100000000
H     2.124000000     2.166000000    -3.267000000
C    -0.055000000     4.279000000    -1.647000000
H    -0.291000000     4.650000000    -0.653000000
O     3.434000000     3.145000000    -1.227000000
H     1.791000000     2.247000000    -0.225000000
C     3.050000000     3.191000000     2.178000000
C     4.382000000     3.049000000     1.527000000
H     5.191000000     3.025000000     2.260000000
H     4.603000000     3.969000000     0.982000000
C     4.460000000     1.934000000     0.572000000
C     4.813000000     0.672000000     1.043000000
H     5.013000000     0.508000000     2.099000000
C     4.150000000     2.099000000    -0.804000000
C     4.177000000     0.992000000    -1.649000000
H     3.919000000     1.154000000    -2.692000000
C     4.571000000    -0.253000000    -1.206000000
O     4.651000000    -1.356000000    -2.022000000
C     3.482000000    -2.208000000    -2.003000000
C     3.048000000    -2.653000000    -3.447000000
C     3.318000000    -1.876000000    -4.515000000
H     3.989000000    -1.039000000    -4.337000000
C     2.333000000    -3.832000000    -3.628000000
H     2.221000000    -4.546000000    -2.817000000
O     3.769000000    -3.353000000    -1.142000000
H     2.659000000    -1.578000000    -1.636000000
C     4.848000000    -0.399000000     0.141000000
C     5.213000000    -1.742000000     0.751000000
H     5.921000000    -1.660000000     1.578000000
H     5.769000000    -2.280000000    -0.020000000
C     4.049000000    -2.509000000     1.102000000
C     3.366000000    -3.229000000     0.097000000
C     2.099000000    -3.739000000     0.372000000
H     1.530000000    -4.174000000    -0.446000000
C     1.595000000    -3.762000000     1.661000000
O     0.312000000    -4.221000000     1.816000000
C    -0.723000000    -3.260000000     2.047000000
H    -0.409000000    -2.275000000     1.671000000
C    -1.991000000    -3.636000000     1.257000000
C    -3.316000000    -3.441000000     1.853000000
H    -3.364000000    -3.285000000     2.928000000
C    -1.955000000    -3.928000000    -0.100000000
H    -1.004000000    -3.968000000    -0.625000000
C    -3.127000000    -4.087000000    -0.855000000
O    -3.102000000    -4.491000000    -2.140000000
C    -4.377000000    -3.963000000    -0.295000000
H    -5.293000000    -4.206000000    -0.827000000
C    -4.456000000    -3.687000000     1.064000000
O    -5.711000000    -3.535000000     1.595000000
C    -5.883000000    -2.561000000     2.586000000
C    -5.865000000    -1.193000000     2.263000000
H    -5.751000000    -0.812000000     1.251000000
C    -6.136000000    -2.998000000     3.885000000
H    -6.360000000    -4.010000000     4.212000000
C    -6.467000000    -2.139000000     4.904000000
H    -6.859000000    -2.502000000     5.851000000
C    -6.414000000    -0.738000000     4.572000000
H    -6.524000000     0.021000000     5.342000000
C    -6.066000000    -0.317000000     3.269000000
O    -6.137000000     1.044000000     2.999000000
C    -5.046000000     1.886000000     2.756000000
C    -5.287000000     3.048000000     2.060000000
H    -6.291000000     3.158000000     1.658000000
C    -4.293000000     4.000000000     1.886000000
O    -4.696000000     5.109000000     1.369000000
C    -3.870000000     5.791000000     0.525000000
C    -3.412000000     5.226000000    -0.653000000
H    -3.709000000     4.268000000    -1.072000000
C    -3.751000000     7.135000000     0.735000000
H    -4.295000000     7.596000000     1.556000000
C    -2.920000000     7.875000000    -0.089000000
H    -2.716000000     8.943000000    -0.075000000
C    -2.242000000     7.299000000    -1.177000000
H    -1.725000000     7.896000000    -1.925000000
C    -2.508000000     5.966000000    -1.460000000
O    -1.959000000     5.511000000    -2.632000000
C    -0.877000000     4.617000000    -2.766000000
C    -0.591000000     4.045000000    -4.004000000
H    -1.273000000     4.176000000    -4.841000000
C     0.383000000     3.091000000    -4.102000000
O     0.368000000     2.328000000    -5.323000000
C     1.532000000     1.838000000    -5.874000000
C     1.622000000     0.445000000    -6.054000000
H     0.869000000    -0.226000000    -5.649000000
C     2.522000000     2.713000000    -6.335000000
H     2.500000000     3.788000000    -6.177000000
C     3.694000000     2.245000000    -7.003000000
H     4.419000000     2.934000000    -7.428000000
C     3.708000000     0.899000000    -7.275000000
H     4.589000000     0.548000000    -7.806000000
C     2.762000000     0.018000000    -6.785000000
O     2.962000000    -1.358000000    -6.933000000
C     2.869000000    -2.217000000    -5.799000000
C     2.001000000    -3.281000000    -5.938000000
H     1.473000000    -3.493000000    -6.864000000
C     1.664000000    -4.089000000    -4.856000000
O     0.746000000    -5.101000000    -5.096000000
C    -0.287000000    -5.563000000    -4.243000000
C    -0.152000000    -6.891000000    -3.779000000
H     0.653000000    -7.493000000    -4.191000000
C    -1.027000000    -7.413000000    -2.917000000
H    -0.920000000    -8.476000000    -2.718000000
C    -2.030000000    -6.587000000    -2.340000000
H    -2.796000000    -7.065000000    -1.736000000
C    -2.067000000    -5.235000000    -2.662000000
C    -1.193000000    -4.704000000    -3.622000000
H    -1.273000000    -3.656000000    -3.899000000
C    -1.134000000     1.094000000    -0.819000000
H    -1.492000000     2.074000000    -0.512000000
C    -0.095000000     0.489000000    -0.030000000
H     0.249000000     0.955000000     0.891000000
C     0.429000000    -0.707000000    -0.359000000
H     1.251000000    -1.139000000     0.278000000
C     0.026000000    -1.270000000    -1.574000000
H     0.564000000    -2.156000000    -1.903000000
C    -0.959000000    -0.704000000    -2.368000000
H    -1.179000000    -1.158000000    -3.331000000
C    -1.545000000     0.545000000    -2.014000000
C    -2.623000000     1.133000000    -2.886000000
O    -2.781000000     0.762000000    -4.058000000
O    -3.550000000     1.696000000    -2.362000000
O    -7.941000000    -1.068000000    -0.952000000
H    -7.007000000    -1.265000000    -1.023000000
H    -7.974000000    -0.138000000    -0.728000000
O    -4.288000000     3.302000000    -4.451000000
H    -3.912000000     2.474000000    -4.153000000
H    -4.286000000     3.860000000    -3.673000000
O    -2.297000000     2.354000000    -7.169000000
H    -3.183000000     2.451000000    -6.821000000
H    -1.798000000     1.969000000    -6.448000000
O    -4.335000000     6.665000000    -4.810000000
H    -3.719000000     7.273000000    -4.402000000
H    -4.022000000     5.798000000    -4.552000000
O    -0.339000000     3.876000000    -8.664000000
H    -0.105000000     4.555000000    -8.031000000
H    -1.158000000     3.509000000    -8.329000000
O    -4.955000000    -0.711000000    -1.903000000
H    -4.484000000     0.118000000    -1.990000000
H    -4.271000000    -1.361000000    -1.743000000
O    -7.625000000     0.136000000    -5.018000000
H    -7.256000000     0.924000000    -4.619000000
H    -8.512000000     0.079000000    -4.661000000
O    -4.609000000     0.552000000    -5.750000000
H    -3.873000000     0.514000000    -5.138000000
H    -5.297000000     0.036000000    -5.329000000
O    -6.126000000    -2.115000000    -3.875000000
H    -5.597000000    -1.651000000    -3.227000000
H    -6.616000000    -1.425000000    -4.322000000
O    -5.630000000     2.367000000    -0.840000000
H    -5.542000000     3.309000000    -0.987000000
H    -4.848000000     1.988000000    -1.242000000
O    -0.261000000    -0.654000000    -8.963000000
H     0.191000000     0.184000000    -9.063000000
H    -1.130000000    -0.420000000    -8.637000000
O    -2.710000000    -1.702000000    -5.637000000
H    -2.646000000    -0.771000000    -5.424000000
H    -3.097000000    -1.721000000    -6.512000000
O    -8.160000000     1.506000000    -0.682000000
H    -8.532000000     1.921000000    -1.461000000
H    -7.219000000     1.665000000    -0.752000000
O    -5.903000000     4.768000000    -2.464000000
H    -5.752000000     5.499000000    -1.865000000
H    -6.654000000     5.040000000    -2.991000000
O    -5.935000000     4.100000000    -6.451000000
H    -6.150000000     3.550000000    -7.204000000
H    -5.204000000     3.650000000    -6.027000000
O     0.027000000     5.596000000    -6.621000000
H    -0.344000000     5.940000000    -5.808000000
H     0.947000000     5.860000000    -6.595000000
O    -2.812000000     0.072000000    -8.368000000
H    -3.747000000    -0.105000000    -8.469000000
H    -2.765000000     1.010000000    -8.183000000
O    -4.585000000    -4.260000000    -4.620000000
H    -5.194000000    -3.534000000    -4.488000000
H    -3.729000000    -3.901000000    -4.387000000
O    -7.110000000     2.587000000    -4.016000000
H    -6.603000000     2.899000000    -4.766000000
H    -6.593000000     2.845000000    -3.253000000
