215
-1429.09530
C    -3.964000000     2.454000000     2.160000000
H    -3.198000000     3.111000000     1.756000000
C    -3.596000000     1.634000000     3.227000000
C    -4.459000000     0.664000000     3.686000000
H    -4.160000000     0.035000000     4.521000000
C    -2.113000000     1.636000000     3.658000000
O    -1.605000000     2.986000000     3.770000000
H    -1.580000000     1.136000000     2.835000000
O    -1.923000000     0.888000000     4.856000000
C    -0.783000000     0.049000000     4.878000000
C    -0.882000000    -1.281000000     4.456000000
H    -1.825000000    -1.804000000     4.317000000
C     0.238000000    -2.038000000     4.239000000
O     0.028000000    -3.268000000     3.582000000
C     1.517000000    -1.544000000     4.524000000
C     2.715000000    -2.470000000     4.183000000
H     3.469000000    -2.091000000     4.876000000
C     3.223000000    -2.357000000     2.792000000
C     4.180000000    -1.478000000     2.367000000
H     4.553000000    -0.687000000     3.012000000
H     2.635000000    -3.550000000     4.322000000
C     1.637000000    -0.190000000     4.897000000
H     2.594000000     0.323000000     4.863000000
C     0.503000000     0.575000000     5.036000000
C     0.723000000     2.047000000     5.256000000
H     1.686000000     2.161000000     5.759000000
H     0.056000000     2.422000000     6.036000000
C     0.758000000     2.849000000     3.967000000
C     1.934000000     3.079000000     3.338000000
H     2.808000000     2.709000000     3.867000000
C    -0.380000000     3.289000000     3.299000000
C    -0.327000000     3.902000000     2.048000000
H    -1.224000000     4.245000000     1.539000000
C     0.940000000     4.228000000     1.498000000
O     0.925000000     4.740000000     0.219000000
C     1.320000000     3.806000000    -0.860000000
C     0.392000000     3.879000000    -2.044000000
C     0.630000000     3.054000000    -3.163000000
H     1.501000000     2.405000000    -3.215000000
C    -0.870000000     4.399000000    -1.971000000
H    -1.139000000     4.932000000    -1.063000000
O     2.680000000     3.983000000    -1.209000000
H     1.161000000     2.739000000    -0.642000000
C     2.065000000     3.829000000     2.153000000
C     3.487000000     4.042000000     1.613000000
H     4.096000000     4.018000000     2.519000000
H     3.652000000     5.016000000     1.148000000
C     3.881000000     3.004000000     0.615000000
C     4.540000000     1.901000000     1.077000000
H     4.859000000     1.851000000     2.115000000
C     3.578000000     3.143000000    -0.725000000
C     3.949000000     2.062000000    -1.593000000
H     3.824000000     2.126000000    -2.671000000
C     4.551000000     0.903000000    -1.132000000
O     4.831000000    -0.024000000    -2.073000000
C     4.074000000    -1.194000000    -2.098000000
C     3.763000000    -1.801000000    -3.467000000
C     3.915000000    -1.017000000    -4.641000000
H     4.419000000    -0.060000000    -4.536000000
C     2.940000000    -3.003000000    -3.570000000
H     2.547000000    -3.520000000    -2.698000000
O     4.642000000    -2.154000000    -1.212000000
H     3.100000000    -0.958000000    -1.646000000
C     4.962000000     0.851000000     0.225000000
C     5.669000000    -0.306000000     0.730000000
H     6.266000000    -0.077000000     1.615000000
H     6.425000000    -0.706000000     0.050000000
C     4.655000000    -1.394000000     1.065000000
C     4.160000000    -2.279000000     0.127000000
C     3.129000000    -3.170000000     0.506000000
H     2.838000000    -3.967000000    -0.173000000
C     2.656000000    -3.217000000     1.837000000
O     1.562000000    -4.031000000     2.003000000
C     0.305000000    -3.276000000     2.140000000
H     0.403000000    -2.219000000     1.852000000
C    -0.945000000    -3.802000000     1.477000000
C    -2.169000000    -4.082000000     2.097000000
H    -2.301000000    -3.869000000     3.154000000
C    -0.797000000    -3.763000000     0.056000000
H     0.054000000    -3.365000000    -0.491000000
C    -1.924000000    -4.141000000    -0.683000000
O    -1.763000000    -4.024000000    -2.001000000
C    -3.157000000    -4.514000000    -0.097000000
H    -4.067000000    -4.810000000    -0.614000000
C    -3.256000000    -4.442000000     1.289000000
O    -4.371000000    -4.721000000     1.982000000
C    -4.981000000    -3.953000000     2.939000000
C    -5.157000000    -2.565000000     2.832000000
H    -4.774000000    -1.925000000     2.042000000
C    -5.626000000    -4.598000000     4.031000000
H    -5.503000000    -5.672000000     4.149000000
C    -6.460000000    -3.910000000     4.947000000
H    -6.913000000    -4.431000000     5.787000000
C    -6.618000000    -2.558000000     4.781000000
H    -7.182000000    -2.058000000     5.564000000
C    -6.001000000    -1.886000000     3.771000000
O    -6.404000000    -0.644000000     3.394000000
C    -5.593000000     0.347000000     2.982000000
C    -5.968000000     1.125000000     1.945000000
H    -6.879000000     0.968000000     1.373000000
C    -5.227000000     2.273000000     1.578000000
O    -5.605000000     2.927000000     0.399000000
C    -5.047000000     4.077000000    -0.084000000
C    -4.295000000     3.972000000    -1.272000000
H    -4.188000000     3.052000000    -1.841000000
C    -5.109000000     5.269000000     0.647000000
H    -5.686000000     5.399000000     1.559000000
C    -4.394000000     6.342000000     0.106000000
H    -4.241000000     7.197000000     0.760000000
C    -3.746000000     6.235000000    -1.127000000
H    -3.096000000     7.062000000    -1.398000000
C    -3.739000000     5.051000000    -1.875000000
O    -2.982000000     5.050000000    -3.031000000
C    -1.773000000     4.390000000    -3.052000000
C    -1.451000000     3.672000000    -4.186000000
H    -2.047000000     3.713000000    -5.094000000
C    -0.224000000     2.989000000    -4.227000000
O    -0.010000000     2.168000000    -5.323000000
C     1.230000000     1.987000000    -5.904000000
C     1.811000000     0.681000000    -6.093000000
H     1.320000000    -0.232000000    -5.764000000
C     1.891000000     3.102000000    -6.326000000
H     1.556000000     4.133000000    -6.246000000
C     3.099000000     2.963000000    -7.106000000
H     3.493000000     3.920000000    -7.438000000
C     3.649000000     1.638000000    -7.310000000
H     4.527000000     1.369000000    -7.891000000
C     2.956000000     0.515000000    -6.865000000
O     3.519000000    -0.720000000    -6.948000000
C     3.509000000    -1.510000000    -5.860000000
C     2.930000000    -2.760000000    -5.946000000
H     2.692000000    -3.129000000    -6.941000000
C     2.567000000    -3.468000000    -4.839000000
O     1.906000000    -4.688000000    -4.990000000
C     0.894000000    -5.229000000    -4.187000000
C     0.639000000    -6.574000000    -4.132000000
H     1.395000000    -7.183000000    -4.621000000
C    -0.354000000    -7.046000000    -3.285000000
H    -0.340000000    -8.117000000    -3.100000000
C    -1.191000000    -6.179000000    -2.584000000
H    -1.890000000    -6.528000000    -1.828000000
C    -0.997000000    -4.853000000    -2.729000000
C     0.089000000    -4.325000000    -3.437000000
H     0.256000000    -3.251000000    -3.455000000
C    -3.018000000    -0.477000000    -0.197000000
H    -3.900000000    -1.081000000     0.000000000
C    -1.977000000    -0.636000000     0.660000000
H    -2.223000000    -1.007000000     1.652000000
C    -0.741000000    -0.022000000     0.409000000
H     0.130000000    -0.090000000     1.107000000
C    -0.532000000     0.616000000    -0.814000000
H     0.480000000     0.935000000    -1.051000000
C    -1.569000000     0.732000000    -1.704000000
H    -1.442000000     1.191000000    -2.681000000
C    -2.836000000     0.127000000    -1.442000000
C    -3.988000000     0.324000000    -2.351000000
O    -3.810000000     1.005000000    -3.300000000
O    -4.945000000    -0.473000000    -2.298000000
O    -7.437000000     1.095000000    -3.068000000
H    -6.574000000     0.841000000    -2.742000000
H    -7.540000000     2.005000000    -2.790000000
O    -6.708000000     5.515000000    -4.966000000
H    -7.119000000     4.650000000    -4.941000000
H    -7.438000000     6.129000000    -4.889000000
O    -2.460000000     0.444000000    -5.308000000
H    -1.694000000     0.956000000    -5.052000000
H    -3.033000000     0.469000000    -4.542000000
O    -6.350000000    -2.229000000    -0.327000000
H    -5.961000000    -1.450000000    -0.723000000
H    -7.110000000    -2.423000000    -0.876000000
O    -5.362000000    -1.800000000    -7.668000000
H    -5.435000000    -1.502000000    -6.762000000
H    -5.263000000    -0.996000000    -8.178000000
O    -5.958000000    -0.818000000    -4.971000000
H    -6.363000000    -0.019000000    -5.309000000
H    -5.516000000    -0.540000000    -4.169000000
O    -7.757000000    -3.433000000    -4.409000000
H    -7.049000000    -2.803000000    -4.278000000
H    -8.555000000    -2.938000000    -4.224000000
O    -4.866000000     2.533000000    -5.249000000
H    -4.379000000     1.932000000    -4.685000000
H    -4.855000000     3.366000000    -4.778000000
O    -3.096000000     1.226000000    -7.988000000
H    -3.532000000     1.955000000    -7.545000000
H    -2.696000000     0.721000000    -7.280000000
O    -9.144000000     5.075000000    -2.392000000
H    -8.526000000     5.470000000    -1.776000000
H    -8.664000000     4.340000000    -2.774000000
O    -3.519000000    -2.674000000    -5.229000000
H    -3.351000000    -3.063000000    -4.371000000
H    -3.705000000    -1.754000000    -5.043000000
O    -8.227000000     3.069000000    -4.855000000
H    -9.105000000     2.932000000    -5.209000000
H    -7.718000000     2.328000000    -5.182000000
O    -4.097000000    -5.444000000    -3.807000000
H    -4.599000000    -5.516000000    -4.619000000
H    -4.443000000    -4.661000000    -3.380000000
O    -8.322000000    -3.362000000     1.164000000
H    -7.638000000    -2.970000000     0.621000000
H    -8.824000000    -3.909000000     0.560000000
O    -6.925000000     1.252000000    -6.390000000
H    -6.068000000     1.605000000    -6.149000000
H    -6.809000000     0.932000000    -7.284000000
O    -7.731000000    -4.831000000    -2.087000000
H    -7.329000000    -4.318000000    -2.787000000
H    -8.658000000    -4.592000000    -2.117000000
O    -1.769000000    -3.606000000    -7.273000000
H    -0.938000000    -3.137000000    -7.347000000
H    -2.251000000    -3.135000000    -6.594000000
O    -9.255000000    -0.859000000    -3.726000000
H    -8.715000000    -0.078000000    -3.601000000
H   -10.150000000    -0.525000000    -3.779000000
O    -4.817000000    -2.984000000    -2.793000000
H    -4.571000000    -2.064000000    -2.886000000
H    -5.036000000    -3.082000000    -1.866000000
