215
-1452.19723
C    -3.051000000     2.576000000     3.203000000
H    -2.355000000     3.406000000     3.288000000
C    -2.601000000     1.307000000     3.574000000
C    -3.494000000     0.231000000     3.356000000
H    -3.225000000    -0.806000000     3.541000000
C    -1.136000000     1.084000000     3.931000000
O    -0.452000000     2.227000000     4.504000000
H    -0.598000000     0.898000000     2.990000000
O    -0.987000000    -0.042000000     4.820000000
C    -0.025000000    -0.931000000     4.454000000
C    -0.355000000    -2.138000000     3.875000000
H    -1.358000000    -2.510000000     3.682000000
C     0.614000000    -3.113000000     3.530000000
O     0.147000000    -4.307000000     2.929000000
C     1.955000000    -2.783000000     3.543000000
C     2.907000000    -3.734000000     3.009000000
H     3.877000000    -3.520000000     3.463000000
C     3.123000000    -3.651000000     1.515000000
C     4.112000000    -2.798000000     1.018000000
H     4.726000000    -2.255000000     1.732000000
H     2.521000000    -4.717000000     3.288000000
C     2.359000000    -1.549000000     4.053000000
H     3.416000000    -1.318000000     4.148000000
C     1.401000000    -0.616000000     4.571000000
C     1.878000000     0.648000000     5.239000000
H     2.932000000     0.575000000     5.515000000
H     1.304000000     0.783000000     6.158000000
C     1.894000000     1.773000000     4.162000000
C     3.109000000     1.996000000     3.487000000
H     3.972000000     1.356000000     3.650000000
C     0.748000000     2.545000000     3.925000000
C     0.772000000     3.496000000     2.929000000
H    -0.150000000     4.008000000     2.667000000
C     1.955000000     3.706000000     2.233000000
O     1.926000000     4.597000000     1.112000000
C     1.820000000     4.033000000    -0.220000000
C     0.919000000     4.817000000    -1.137000000
C     0.994000000     4.749000000    -2.553000000
H     1.886000000     4.256000000    -2.930000000
C    -0.187000000     5.446000000    -0.563000000
H    -0.346000000     5.436000000     0.513000000
O     3.076000000     3.915000000    -0.787000000
H     1.348000000     3.063000000    -0.003000000
C     3.097000000     2.894000000     2.403000000
C     4.365000000     3.010000000     1.521000000
H     5.194000000     2.739000000     2.178000000
H     4.560000000     4.039000000     1.213000000
C     4.321000000     2.120000000     0.292000000
C     4.799000000     0.812000000     0.310000000
H     5.338000000     0.453000000     1.183000000
C     3.592000000     2.611000000    -0.826000000
C     3.436000000     1.779000000    -1.943000000
H     2.992000000     2.175000000    -2.852000000
C     3.869000000     0.432000000    -1.820000000
O     3.550000000    -0.326000000    -2.876000000
C     2.462000000    -1.233000000    -2.760000000
C     1.620000000    -1.205000000    -4.058000000
C     1.525000000    -0.033000000    -4.819000000
H     2.147000000     0.827000000    -4.582000000
C     0.827000000    -2.301000000    -4.331000000
H     0.871000000    -3.224000000    -3.758000000
O     3.030000000    -2.586000000    -2.563000000
H     1.753000000    -0.981000000    -1.958000000
C     4.590000000    -0.083000000    -0.708000000
C     5.237000000    -1.450000000    -0.780000000
H     6.191000000    -1.487000000    -0.250000000
H     5.598000000    -1.559000000    -1.805000000
C     4.191000000    -2.459000000    -0.294000000
C     3.263000000    -3.047000000    -1.226000000
C     2.396000000    -4.049000000    -0.771000000
H     1.710000000    -4.546000000    -1.452000000
C     2.333000000    -4.359000000     0.582000000
O     1.209000000    -5.045000000     1.011000000
C     0.023000000    -4.256000000     1.474000000
H     0.158000000    -3.231000000     1.099000000
C    -1.273000000    -4.831000000     0.902000000
C    -2.408000000    -4.919000000     1.752000000
H    -2.413000000    -4.727000000     2.822000000
C    -1.419000000    -5.230000000    -0.433000000
H    -0.502000000    -5.280000000    -1.014000000
C    -2.704000000    -5.545000000    -0.960000000
O    -2.919000000    -5.932000000    -2.272000000
C    -3.788000000    -5.671000000    -0.056000000
H    -4.712000000    -6.051000000    -0.487000000
C    -3.691000000    -5.323000000     1.289000000
O    -4.817000000    -5.294000000     2.078000000
C    -5.057000000    -4.264000000     2.932000000
C    -5.397000000    -3.011000000     2.493000000
H    -5.604000000    -2.767000000     1.455000000
C    -4.987000000    -4.503000000     4.289000000
H    -4.785000000    -5.526000000     4.598000000
C    -5.048000000    -3.528000000     5.260000000
H    -4.894000000    -3.799000000     6.301000000
C    -5.350000000    -2.223000000     4.857000000
H    -5.470000000    -1.398000000     5.555000000
C    -5.465000000    -1.943000000     3.491000000
O    -5.700000000    -0.642000000     2.994000000
C    -4.799000000     0.407000000     2.921000000
C    -5.217000000     1.677000000     2.559000000
H    -6.274000000     1.751000000     2.316000000
C    -4.345000000     2.792000000     2.691000000
O    -4.736000000     3.987000000     2.226000000
C    -3.943000000     5.100000000     2.005000000
C    -3.420000000     5.307000000     0.759000000
H    -3.614000000     4.523000000     0.031000000
C    -3.728000000     6.114000000     2.946000000
H    -4.182000000     5.958000000     3.921000000
C    -3.130000000     7.285000000     2.592000000
H    -2.959000000     8.007000000     3.386000000
C    -2.427000000     7.445000000     1.375000000
H    -1.838000000     8.331000000     1.150000000
C    -2.659000000     6.437000000     0.435000000
O    -2.169000000     6.611000000    -0.848000000
C    -1.067000000     6.042000000    -1.410000000
C    -0.964000000     6.068000000    -2.772000000
H    -1.644000000     6.577000000    -3.450000000
C     0.062000000     5.345000000    -3.413000000
O     0.262000000     5.394000000    -4.821000000
C     1.062000000     4.481000000    -5.497000000
C     0.589000000     3.183000000    -5.678000000
H    -0.381000000     2.865000000    -5.306000000
C     2.287000000     4.834000000    -5.985000000
H     2.593000000     5.871000000    -5.871000000
C     2.983000000     3.983000000    -6.768000000
H     3.896000000     4.429000000    -7.153000000
C     2.614000000     2.736000000    -6.970000000
H     3.149000000     1.996000000    -7.560000000
C     1.353000000     2.350000000    -6.461000000
O     0.778000000     1.154000000    -6.783000000
C     0.693000000     0.030000000    -5.941000000
C    -0.155000000    -1.032000000    -6.137000000
H    -0.886000000    -1.071000000    -6.940000000
C    -0.120000000    -2.200000000    -5.345000000
O    -1.078000000    -3.208000000    -5.669000000
C    -1.016000000    -4.378000000    -5.072000000
C    -0.163000000    -5.385000000    -5.459000000
H     0.491000000    -5.276000000    -6.321000000
C    -0.289000000    -6.569000000    -4.741000000
H     0.323000000    -7.427000000    -5.005000000
C    -1.247000000    -6.843000000    -3.779000000
H    -1.301000000    -7.839000000    -3.346000000
C    -1.991000000    -5.759000000    -3.278000000
C    -1.959000000    -4.528000000    -4.015000000
H    -2.605000000    -3.723000000    -3.675000000
C    -2.373000000     1.357000000    -0.088000000
H    -2.599000000     2.419000000    -0.029000000
C    -1.115000000     0.864000000     0.266000000
H    -0.256000000     1.466000000     0.548000000
C    -0.871000000    -0.515000000     0.127000000
H     0.120000000    -0.843000000     0.427000000
C    -1.914000000    -1.343000000    -0.312000000
H    -1.746000000    -2.410000000    -0.428000000
C    -3.127000000    -0.860000000    -0.677000000
H    -3.943000000    -1.533000000    -0.930000000
C    -3.359000000     0.536000000    -0.602000000
C    -4.653000000     1.131000000    -1.204000000
O    -5.441000000     0.314000000    -1.566000000
O    -4.806000000     2.361000000    -1.335000000
O    -3.642000000     3.807000000    -3.107000000
H    -4.133000000     4.624000000    -3.019000000
H    -4.014000000     3.231000000    -2.439000000
O    -6.823000000     4.960000000    -2.745000000
H    -7.048000000     4.767000000    -1.835000000
H    -7.206000000     5.822000000    -2.909000000
O    -4.616000000    -0.697000000    -4.068000000
H    -4.406000000     0.228000000    -4.195000000
H    -4.842000000    -0.767000000    -3.140000000
O    -9.323000000     3.551000000     0.524000000
H    -8.450000000     3.916000000     0.380000000
H    -9.606000000     3.928000000     1.357000000
O    -1.309000000     1.081000000    -3.084000000
H    -1.799000000     0.330000000    -2.747000000
H    -1.261000000     1.686000000    -2.344000000
O    -9.052000000     1.945000000    -4.895000000
H    -8.874000000     1.043000000    -4.628000000
H    -9.084000000     2.436000000    -4.074000000
O   -10.523000000     2.608000000    -1.864000000
H   -10.565000000     2.915000000    -0.958000000
H    -9.620000000     2.310000000    -1.975000000
O    -8.060000000    -0.560000000    -2.846000000
H    -8.314000000    -0.135000000    -2.027000000
H    -7.105000000    -0.603000000    -2.807000000
O    -6.626000000     3.902000000    -0.049000000
H    -6.367000000     4.201000000     0.822000000
H    -5.957000000     3.262000000    -0.292000000
O    -5.976000000     1.454000000    -5.985000000
H    -6.286000000     2.355000000    -5.892000000
H    -5.088000000     1.468000000    -5.629000000
O    -7.797000000     1.459000000    -0.865000000
H    -6.902000000     1.215000000    -1.101000000
H    -7.753000000     2.400000000    -0.700000000
O   -10.177000000     0.745000000     0.915000000
H    -9.562000000     1.180000000     0.325000000
H    -9.834000000     0.920000000     1.791000000
O    -3.277000000     5.911000000    -5.352000000
H    -3.398000000     5.223000000    -4.698000000
H    -4.116000000     6.371000000    -5.373000000
O    -7.085000000    -1.638000000    -0.284000000
H    -7.915000000    -1.276000000     0.026000000
H    -6.487000000    -0.891000000    -0.295000000
O    -6.603000000     4.180000000    -5.339000000
H    -6.105000000     4.947000000    -5.621000000
H    -6.661000000     4.269000000    -4.388000000
O    -3.379000000     1.767000000    -4.958000000
H    -2.593000000     1.398000000    -4.554000000
H    -3.560000000     2.558000000    -4.450000000
O    -6.727000000    -4.481000000    -1.593000000
H    -6.900000000    -4.736000000    -0.686000000
H    -6.820000000    -3.529000000    -1.596000000
O    -5.941000000    -2.892000000    -4.844000000
H    -5.380000000    -2.257000000    -4.399000000
H    -5.773000000    -3.718000000    -4.392000000
O    -9.077000000    -2.445000000    -4.728000000
H    -8.592000000    -1.889000000    -4.118000000
H    -8.414000000    -2.762000000    -5.341000000
