215
-1457.91238
C    -2.930000000     2.787000000     3.331000000
H    -2.232000000     3.621000000     3.344000000
C    -2.468000000     1.500000000     3.646000000
C    -3.292000000     0.402000000     3.395000000
H    -2.907000000    -0.610000000     3.484000000
C    -1.032000000     1.228000000     3.914000000
O    -0.341000000     2.480000000     4.366000000
H    -0.682000000     1.055000000     2.886000000
O    -0.892000000     0.107000000     4.770000000
C     0.073000000    -0.871000000     4.487000000
C    -0.436000000    -2.107000000     4.034000000
H    -1.515000000    -2.227000000     3.985000000
C     0.506000000    -3.022000000     3.626000000
O     0.071000000    -4.214000000     3.072000000
C     1.905000000    -2.776000000     3.612000000
C     2.926000000    -3.738000000     2.980000000
H     3.874000000    -3.800000000     3.520000000
C     3.015000000    -3.384000000     1.522000000
C     4.011000000    -2.559000000     1.016000000
H     4.635000000    -2.020000000     1.724000000
H     2.583000000    -4.775000000     2.991000000
C     2.364000000    -1.564000000     4.096000000
H     3.433000000    -1.366000000     4.070000000
C     1.444000000    -0.603000000     4.589000000
C     1.884000000     0.739000000     5.084000000
H     2.905000000     0.585000000     5.441000000
H     1.290000000     1.071000000     5.938000000
C     2.027000000     1.806000000     3.914000000
C     3.233000000     2.042000000     3.223000000
H     4.087000000     1.405000000     3.437000000
C     0.937000000     2.689000000     3.734000000
C     1.050000000     3.695000000     2.799000000
H     0.141000000     4.218000000     2.514000000
C     2.154000000     3.801000000     1.978000000
O     2.013000000     4.688000000     0.945000000
C     1.743000000     3.985000000    -0.333000000
C     0.760000000     4.731000000    -1.208000000
C     0.809000000     4.552000000    -2.574000000
H     1.488000000     3.882000000    -3.095000000
C    -0.336000000     5.398000000    -0.610000000
H    -0.279000000     5.588000000     0.459000000
O     2.977000000     3.904000000    -1.020000000
H     1.302000000     3.005000000    -0.100000000
C     3.332000000     3.049000000     2.232000000
C     4.490000000     3.242000000     1.369000000
H     5.429000000     2.947000000     1.843000000
H     4.658000000     4.286000000     1.097000000
C     4.349000000     2.299000000     0.119000000
C     4.964000000     1.022000000     0.116000000
H     5.575000000     0.684000000     0.950000000
C     3.612000000     2.685000000    -1.013000000
C     3.461000000     1.802000000    -1.982000000
H     2.800000000     2.006000000    -2.822000000
C     4.031000000     0.537000000    -1.947000000
O     3.675000000    -0.277000000    -3.024000000
C     2.521000000    -1.102000000    -2.857000000
C     1.672000000    -1.181000000    -4.071000000
C     1.398000000    -0.101000000    -4.943000000
H     1.915000000     0.847000000    -4.821000000
C     1.074000000    -2.428000000    -4.309000000
H     1.190000000    -3.297000000    -3.667000000
O     2.997000000    -2.437000000    -2.473000000
H     1.969000000    -0.768000000    -1.967000000
C     4.791000000     0.167000000    -0.966000000
C     5.196000000    -1.230000000    -0.833000000
H     6.066000000    -1.237000000    -0.173000000
H     5.615000000    -1.606000000    -1.769000000
C     4.119000000    -2.238000000    -0.341000000
C     3.172000000    -2.811000000    -1.215000000
C     2.163000000    -3.666000000    -0.733000000
H     1.367000000    -4.002000000    -1.392000000
C     2.116000000    -3.930000000     0.629000000
O     1.171000000    -4.807000000     1.103000000
C    -0.001000000    -4.197000000     1.619000000
H    -0.038000000    -3.147000000     1.294000000
C    -1.249000000    -4.910000000     1.019000000
C    -2.428000000    -4.902000000     1.801000000
H    -2.507000000    -4.285000000     2.692000000
C    -1.303000000    -5.537000000    -0.199000000
H    -0.411000000    -5.519000000    -0.820000000
C    -2.463000000    -6.167000000    -0.664000000
O    -2.478000000    -6.647000000    -1.949000000
C    -3.592000000    -6.129000000     0.138000000
H    -4.522000000    -6.494000000    -0.290000000
C    -3.618000000    -5.403000000     1.325000000
O    -4.855000000    -5.076000000     1.945000000
C    -5.026000000    -4.013000000     2.806000000
C    -4.987000000    -2.685000000     2.315000000
H    -4.877000000    -2.510000000     1.247000000
C    -5.302000000    -4.281000000     4.099000000
H    -5.197000000    -5.315000000     4.419000000
C    -5.609000000    -3.187000000     4.963000000
H    -5.874000000    -3.371000000     6.001000000
C    -5.609000000    -1.844000000     4.488000000
H    -5.962000000    -1.017000000     5.099000000
C    -5.467000000    -1.645000000     3.112000000
O    -5.495000000    -0.391000000     2.487000000
C    -4.608000000     0.616000000     2.880000000
C    -5.068000000     1.868000000     2.681000000
H    -6.054000000     2.095000000     2.284000000
C    -4.254000000     2.983000000     2.853000000
O    -4.698000000     4.270000000     2.562000000
C    -3.795000000     5.220000000     2.195000000
C    -3.498000000     5.394000000     0.804000000
H    -3.874000000     4.643000000     0.115000000
C    -3.387000000     6.204000000     3.103000000
H    -3.649000000     6.177000000     4.158000000
C    -2.725000000     7.322000000     2.684000000
H    -2.556000000     8.103000000     3.421000000
C    -2.455000000     7.496000000     1.343000000
H    -2.114000000     8.467000000     0.993000000
C    -2.747000000     6.500000000     0.372000000
O    -2.437000000     6.640000000    -0.961000000
C    -1.271000000     6.061000000    -1.411000000
C    -1.181000000     5.919000000    -2.800000000
H    -1.994000000     6.261000000    -3.435000000
C    -0.178000000     5.170000000    -3.352000000
O    -0.198000000     5.054000000    -4.697000000
C     0.393000000     4.205000000    -5.557000000
C    -0.209000000     2.960000000    -5.744000000
H    -1.107000000     2.732000000    -5.175000000
C     1.579000000     4.581000000    -6.221000000
H     1.980000000     5.589000000    -6.146000000
C     2.161000000     3.616000000    -6.988000000
H     3.113000000     3.793000000    -7.483000000
C     1.502000000     2.394000000    -7.268000000
H     1.941000000     1.628000000    -7.902000000
C     0.325000000     2.057000000    -6.624000000
O    -0.102000000     0.724000000    -6.760000000
C     0.457000000    -0.316000000    -5.995000000
C    -0.136000000    -1.581000000    -6.159000000
H    -0.835000000    -1.716000000    -6.981000000
C     0.171000000    -2.670000000    -5.364000000
O    -0.541000000    -3.844000000    -5.500000000
C    -0.484000000    -4.972000000    -4.692000000
C     0.618000000    -5.841000000    -4.703000000
H     1.545000000    -5.552000000    -5.192000000
C     0.672000000    -6.898000000    -3.882000000
H     1.568000000    -7.512000000    -3.845000000
C    -0.374000000    -7.085000000    -3.006000000
H    -0.388000000    -7.921000000    -2.312000000
C    -1.481000000    -6.285000000    -2.869000000
C    -1.545000000    -5.192000000    -3.766000000
H    -2.378000000    -4.496000000    -3.707000000
C    -2.323000000     1.158000000    -0.395000000
H    -2.666000000     2.179000000    -0.246000000
C    -1.055000000     0.800000000     0.019000000
H    -0.417000000     1.597000000     0.392000000
C    -0.723000000    -0.546000000     0.007000000
H     0.270000000    -0.740000000     0.410000000
C    -1.660000000    -1.504000000    -0.455000000
H    -1.363000000    -2.549000000    -0.429000000
C    -2.879000000    -1.139000000    -0.936000000
H    -3.510000000    -1.903000000    -1.382000000
C    -3.286000000     0.234000000    -0.814000000
C    -4.749000000     0.600000000    -1.196000000
O    -5.584000000    -0.231000000    -1.248000000
O    -5.042000000     1.720000000    -1.659000000
O    -7.199000000     3.416000000    -2.031000000
H    -7.274000000     3.895000000    -1.206000000
H    -6.342000000     2.992000000    -1.985000000
O    -6.391000000    -0.454000000    -3.858000000
H    -6.170000000     0.261000000    -4.455000000
H    -6.116000000    -0.141000000    -2.997000000
O    -3.429000000    -3.046000000    -6.663000000
H    -3.673000000    -3.962000000    -6.532000000
H    -3.474000000    -2.659000000    -5.789000000
O    -1.301000000     1.115000000    -3.341000000
H    -0.968000000     0.504000000    -3.998000000
H    -1.513000000     0.564000000    -2.588000000
O    -7.745000000    -0.628000000    -6.680000000
H    -8.212000000    -1.397000000    -7.005000000
H    -7.406000000    -0.896000000    -5.826000000
O    -8.167000000     0.349000000     2.758000000
H    -7.259000000     0.068000000     2.645000000
H    -8.100000000     1.247000000     3.083000000
O    -8.784000000    -1.149000000    -2.301000000
H    -8.906000000    -0.339000000    -1.806000000
H    -8.005000000    -0.989000000    -2.834000000
O    -7.367000000     4.592000000     0.394000000
H    -6.862000000     4.938000000     1.130000000
H    -8.276000000     4.807000000     0.606000000
O    -5.235000000     1.581000000    -5.585000000
H    -5.922000000     2.224000000    -5.411000000
H    -4.494000000     1.873000000    -5.054000000
O    -8.112000000     1.060000000    -0.943000000
H    -7.370000000     0.479000000    -0.776000000
H    -7.714000000     1.906000000    -1.144000000
O   -10.194000000     0.410000000     0.679000000
H    -9.830000000     0.790000000    -0.121000000
H    -9.429000000     0.202000000     1.215000000
O    -4.570000000     5.276000000    -4.945000000
H    -4.999000000     5.945000000    -4.412000000
H    -4.351000000     4.580000000    -4.325000000
O    -5.879000000    -2.836000000    -1.481000000
H    -5.952000000    -1.882000000    -1.453000000
H    -6.585000000    -3.147000000    -0.916000000
O    -7.519000000     3.280000000    -4.929000000
H    -7.825000000     4.122000000    -5.266000000
H    -7.478000000     3.402000000    -3.981000000
O    -3.682000000     3.254000000    -3.631000000
H    -2.805000000     3.011000000    -3.335000000
H    -4.271000000     2.843000000    -2.999000000
O    -6.170000000    -5.542000000    -2.828000000
H    -7.039000000    -5.149000000    -2.745000000
H    -5.580000000    -4.908000000    -2.421000000
O    -4.252000000    -2.761000000    -4.018000000
H    -4.960000000    -2.137000000    -4.183000000
H    -4.519000000    -3.220000000    -3.222000000
O   -10.601000000    -2.846000000    -1.576000000
H    -9.925000000    -2.175000000    -1.672000000
H   -10.115000000    -3.668000000    -1.513000000
O    -7.576000000    -4.580000000     0.765000000
H    -6.840000000    -5.100000000     1.087000000
H    -7.735000000    -3.938000000     1.457000000
