215
-1417.84507
C    -2.505000000     3.112000000     3.434000000
H    -1.674000000     3.804000000     3.320000000
C    -2.140000000     1.797000000     3.781000000
C    -3.233000000     0.934000000     4.080000000
H    -3.030000000    -0.035000000     4.530000000
C    -0.710000000     1.388000000     3.941000000
O     0.156000000     2.570000000     4.299000000
H    -0.353000000     0.893000000     3.026000000
O    -0.525000000     0.499000000     5.098000000
C     0.231000000    -0.617000000     4.835000000
C    -0.404000000    -1.748000000     4.366000000
H    -1.488000000    -1.823000000     4.337000000
C     0.301000000    -2.745000000     3.746000000
O    -0.363000000    -3.772000000     3.168000000
C     1.652000000    -2.568000000     3.557000000
C     2.555000000    -3.662000000     2.948000000
H     3.519000000    -3.667000000     3.461000000
C     2.655000000    -3.476000000     1.453000000
C     3.795000000    -2.994000000     0.913000000
H     4.460000000    -2.455000000     1.584000000
H     2.046000000    -4.581000000     3.245000000
C     2.333000000    -1.417000000     4.055000000
H     3.390000000    -1.228000000     3.882000000
C     1.575000000    -0.423000000     4.623000000
C     2.333000000     0.807000000     5.038000000
H     3.328000000     0.565000000     5.419000000
H     1.863000000     1.397000000     5.828000000
C     2.431000000     1.723000000     3.898000000
C     3.498000000     1.700000000     2.953000000
H     4.208000000     0.877000000     2.956000000
C     1.339000000     2.603000000     3.613000000
C     1.427000000     3.572000000     2.534000000
H     0.568000000     4.180000000     2.262000000
C     2.539000000     3.551000000     1.664000000
O     2.435000000     4.175000000     0.445000000
C     2.100000000     3.470000000    -0.705000000
C     1.117000000     4.293000000    -1.575000000
C     1.226000000     4.344000000    -2.933000000
H     1.888000000     3.604000000    -3.376000000
C     0.143000000     5.126000000    -0.947000000
H     0.034000000     5.287000000     0.122000000
O     3.296000000     3.212000000    -1.378000000
H     1.727000000     2.481000000    -0.402000000
C     3.499000000     2.584000000     1.861000000
C     4.725000000     2.485000000     0.945000000
H     5.605000000     2.166000000     1.507000000
H     4.998000000     3.456000000     0.527000000
C     4.476000000     1.538000000    -0.193000000
C     4.961000000     0.248000000    -0.205000000
H     5.370000000    -0.044000000     0.758000000
C     3.760000000     1.956000000    -1.291000000
C     3.685000000     1.146000000    -2.392000000
H     3.098000000     1.464000000    -3.250000000
C     4.160000000    -0.193000000    -2.398000000
O     3.744000000    -1.049000000    -3.334000000
C     2.503000000    -1.707000000    -3.014000000
C     1.394000000    -1.712000000    -4.028000000
C     1.329000000    -0.567000000    -4.899000000
H     2.030000000     0.263000000    -4.863000000
C     0.473000000    -2.800000000    -4.153000000
H     0.444000000    -3.574000000    -3.391000000
O     2.915000000    -3.024000000    -2.618000000
H     2.156000000    -1.168000000    -2.120000000
C     4.761000000    -0.678000000    -1.194000000
C     5.169000000    -2.121000000    -1.017000000
H     6.069000000    -2.165000000    -0.401000000
H     5.496000000    -2.467000000    -2.000000000
C     3.983000000    -2.856000000    -0.427000000
C     2.917000000    -3.291000000    -1.241000000
C     1.793000000    -3.917000000    -0.718000000
H     0.915000000    -4.234000000    -1.275000000
C     1.670000000    -4.095000000     0.664000000
O     0.526000000    -4.571000000     1.237000000
C    -0.503000000    -3.664000000     1.752000000
H    -0.251000000    -2.681000000     1.330000000
C    -1.794000000    -4.202000000     1.197000000
C    -2.937000000    -3.904000000     1.892000000
H    -2.861000000    -3.537000000     2.912000000
C    -1.786000000    -4.944000000    -0.015000000
H    -0.872000000    -5.231000000    -0.529000000
C    -3.083000000    -5.235000000    -0.585000000
O    -3.335000000    -5.940000000    -1.714000000
C    -4.244000000    -4.815000000     0.104000000
H    -5.230000000    -5.030000000    -0.298000000
C    -4.161000000    -4.164000000     1.321000000
O    -5.329000000    -3.801000000     1.913000000
C    -5.360000000    -3.116000000     3.116000000
C    -5.366000000    -1.658000000     3.103000000
H    -5.398000000    -1.177000000     2.129000000
C    -5.382000000    -3.754000000     4.289000000
H    -5.421000000    -4.839000000     4.246000000
C    -5.502000000    -3.039000000     5.489000000
H    -5.416000000    -3.532000000     6.454000000
C    -5.515000000    -1.638000000     5.486000000
H    -5.594000000    -0.951000000     6.325000000
C    -5.547000000    -0.927000000     4.266000000
O    -5.591000000     0.468000000     4.300000000
C    -4.535000000     1.323000000     4.025000000
C    -4.843000000     2.533000000     3.452000000
H    -5.891000000     2.811000000     3.375000000
C    -3.851000000     3.518000000     3.273000000
O    -4.186000000     4.799000000     2.829000000
C    -3.447000000     5.634000000     2.144000000
C    -3.001000000     5.493000000     0.771000000
H    -3.246000000     4.620000000     0.171000000
C    -3.143000000     6.864000000     2.737000000
H    -3.485000000     7.005000000     3.759000000
C    -2.272000000     7.801000000     2.070000000
H    -2.081000000     8.736000000     2.592000000
C    -1.854000000     7.615000000     0.761000000
H    -1.247000000     8.374000000     0.274000000
C    -2.249000000     6.438000000     0.126000000
O    -1.954000000     6.322000000    -1.159000000
C    -0.848000000     5.721000000    -1.729000000
C    -0.735000000     5.826000000    -3.158000000
H    -1.532000000     6.391000000    -3.636000000
C     0.271000000     5.036000000    -3.763000000
O     0.341000000     4.978000000    -5.184000000
C     1.016000000     3.950000000    -5.905000000
C     0.356000000     2.748000000    -5.924000000
H    -0.622000000     2.646000000    -5.462000000
C     2.262000000     4.086000000    -6.522000000
H     2.682000000     5.085000000    -6.434000000
C     2.837000000     3.050000000    -7.280000000
H     3.819000000     3.091000000    -7.745000000
C     2.116000000     1.836000000    -7.316000000
H     2.497000000     1.015000000    -7.919000000
C     0.909000000     1.674000000    -6.708000000
O     0.166000000     0.490000000    -6.772000000
C     0.328000000    -0.524000000    -5.863000000
C    -0.583000000    -1.576000000    -5.923000000
H    -1.395000000    -1.533000000    -6.645000000
C    -0.469000000    -2.719000000    -5.154000000
O    -1.301000000    -3.825000000    -5.396000000
C    -1.451000000    -4.923000000    -4.568000000
C    -0.411000000    -5.824000000    -4.598000000
H     0.431000000    -5.655000000    -5.265000000
C    -0.405000000    -7.015000000    -3.840000000
H     0.259000000    -7.872000000    -3.925000000
C    -1.415000000    -7.107000000    -2.861000000
H    -1.564000000    -7.929000000    -2.165000000
C    -2.352000000    -6.039000000    -2.717000000
C    -2.503000000    -5.063000000    -3.706000000
H    -3.375000000    -4.414000000    -3.712000000
C    -2.211000000     1.075000000     0.228000000
H    -2.662000000     1.898000000     0.777000000
C    -0.820000000     0.874000000     0.323000000
H    -0.268000000     1.459000000     1.054000000
C    -0.217000000    -0.180000000    -0.351000000
H     0.835000000    -0.353000000    -0.180000000
C    -0.951000000    -1.145000000    -0.984000000
H    -0.441000000    -1.992000000    -1.436000000
C    -2.373000000    -0.986000000    -1.090000000
H    -3.058000000    -1.632000000    -1.634000000
C    -2.971000000     0.097000000    -0.492000000
C    -4.383000000     0.372000000    -0.830000000
O    -4.897000000    -0.086000000    -1.818000000
O    -5.091000000     1.104000000    -0.185000000
O    -5.788000000     1.177000000    -3.908000000
H    -4.990000000     1.349000000    -4.408000000
H    -5.497000000     0.638000000    -3.172000000
O    -4.795000000     4.777000000    -4.211000000
H    -4.427000000     4.573000000    -3.352000000
H    -4.402000000     4.132000000    -4.799000000
O   -10.702000000    -2.027000000    -0.162000000
H    -9.872000000    -1.611000000    -0.396000000
H   -11.064000000    -1.467000000     0.524000000
O    -4.729000000    -1.092000000    -4.939000000
H    -4.907000000    -1.391000000    -5.831000000
H    -5.507000000    -0.592000000    -4.694000000
O    -5.378000000     3.326000000    -1.950000000
H    -5.488000000     2.895000000    -2.798000000
H    -5.113000000     2.624000000    -1.356000000
O    -9.234000000    -4.021000000    -3.543000000
H    -9.434000000    -3.208000000    -4.007000000
H    -8.895000000    -3.735000000    -2.694000000
O    -5.310000000    -2.793000000    -2.830000000
H    -4.958000000    -2.360000000    -3.608000000
H    -5.176000000    -2.162000000    -2.124000000
O    -5.947000000    -5.131000000    -4.651000000
H    -5.380000000    -4.924000000    -5.393000000
H    -5.880000000    -4.367000000    -4.078000000
O    -3.710000000     2.762000000    -5.833000000
H    -3.113000000     3.447000000    -6.136000000
H    -4.181000000     2.489000000    -6.620000000
O    -8.629000000    -1.398000000     2.212000000
H    -9.541000000    -1.158000000     2.049000000
H    -8.606000000    -1.641000000     3.137000000
O    -8.069000000     2.418000000    -4.939000000
H    -7.361000000     2.080000000    -4.391000000
H    -7.941000000     1.989000000    -5.786000000
O    -8.731000000     0.830000000    -2.069000000
H    -8.291000000     0.191000000    -1.509000000
H    -8.878000000     0.366000000    -2.893000000
O    -8.254000000     3.550000000    -1.571000000
H    -7.404000000     3.174000000    -1.346000000
H    -8.754000000     2.816000000    -1.927000000
O    -6.838000000     2.569000000     1.076000000
H    -6.315000000     1.938000000     0.581000000
H    -6.289000000     3.352000000     1.121000000
O    -9.475000000     2.022000000     0.728000000
H    -9.355000000     1.211000000     0.234000000
H    -8.589000000     2.367000000     0.839000000
O    -7.714000000    -0.910000000    -0.285000000
H    -7.945000000    -1.091000000     0.626000000
H    -6.894000000    -0.420000000    -0.232000000
O    -7.051000000     5.755000000    -2.453000000
H    -7.397000000     4.877000000    -2.290000000
H    -6.137000000     5.708000000    -2.174000000
O    -7.495000000    -3.810000000    -1.185000000
H    -7.606000000    -2.935000000    -0.814000000
H    -6.812000000    -3.705000000    -1.847000000
O    -9.051000000    -1.431000000    -4.506000000
H    -9.709000000    -1.616000000    -5.177000000
H    -8.221000000    -1.419000000    -4.982000000
