215
-1455.88024
C    -2.608000000     2.797000000     3.889000000
H    -1.859000000     3.542000000     3.633000000
C    -2.192000000     1.468000000     4.176000000
C    -3.150000000     0.540000000     4.543000000
H    -2.918000000    -0.515000000     4.659000000
C    -0.751000000     1.046000000     4.277000000
O     0.022000000     2.172000000     4.738000000
H    -0.472000000     0.872000000     3.227000000
O    -0.562000000    -0.146000000     5.053000000
C     0.442000000    -1.019000000     4.677000000
C    -0.101000000    -2.180000000     4.153000000
H    -1.168000000    -2.388000000     4.138000000
C     0.661000000    -3.052000000     3.469000000
O     0.021000000    -3.992000000     2.715000000
C     2.073000000    -2.846000000     3.469000000
C     3.101000000    -3.663000000     2.619000000
H     4.108000000    -3.594000000     3.038000000
C     3.130000000    -3.308000000     1.192000000
C     4.181000000    -2.553000000     0.662000000
H     4.851000000    -2.043000000     1.350000000
H     2.841000000    -4.724000000     2.632000000
C     2.569000000    -1.644000000     3.984000000
H     3.618000000    -1.417000000     3.811000000
C     1.757000000    -0.713000000     4.612000000
C     2.366000000     0.552000000     5.041000000
H     3.380000000     0.336000000     5.386000000
H     1.895000000     1.003000000     5.917000000
C     2.269000000     1.638000000     3.932000000
C     3.263000000     1.702000000     2.948000000
H     4.092000000     1.003000000     3.015000000
C     1.127000000     2.442000000     3.899000000
C     1.001000000     3.347000000     2.844000000
H     0.119000000     3.975000000     2.751000000
C     1.987000000     3.462000000     1.883000000
O     1.781000000     4.254000000     0.814000000
C     1.416000000     3.643000000    -0.485000000
C     0.260000000     4.159000000    -1.260000000
C     0.167000000     3.853000000    -2.662000000
H     0.963000000     3.292000000    -3.146000000
C    -0.710000000     4.862000000    -0.505000000
H    -0.633000000     5.070000000     0.559000000
O     2.598000000     3.548000000    -1.374000000
H     1.092000000     2.630000000    -0.204000000
C     3.150000000     2.615000000     1.951000000
C     4.312000000     2.885000000     0.979000000
H     5.277000000     2.701000000     1.455000000
H     4.332000000     3.903000000     0.584000000
C     4.152000000     2.038000000    -0.256000000
C     4.834000000     0.823000000    -0.293000000
H     5.358000000     0.528000000     0.613000000
C     3.430000000     2.453000000    -1.391000000
C     3.437000000     1.662000000    -2.532000000
H     2.791000000     1.835000000    -3.389000000
C     4.143000000     0.450000000    -2.564000000
O     3.880000000    -0.414000000    -3.595000000
C     2.845000000    -1.350000000    -3.370000000
C     1.947000000    -1.555000000    -4.616000000
C     1.741000000    -0.435000000    -5.414000000
H     2.336000000     0.458000000    -5.243000000
C     1.162000000    -2.710000000    -4.799000000
H     1.383000000    -3.589000000    -4.198000000
O     3.395000000    -2.602000000    -2.931000000
H     2.191000000    -0.858000000    -2.635000000
C     4.751000000     0.013000000    -1.333000000
C     5.424000000    -1.370000000    -1.182000000
H     6.192000000    -1.231000000    -0.418000000
H     5.937000000    -1.624000000    -2.112000000
C     4.384000000    -2.342000000    -0.702000000
C     3.451000000    -2.904000000    -1.573000000
C     2.348000000    -3.638000000    -1.103000000
H     1.668000000    -4.072000000    -1.831000000
C     2.182000000    -3.877000000     0.267000000
O     1.019000000    -4.547000000     0.660000000
C     0.059000000    -3.736000000     1.290000000
H     0.353000000    -2.683000000     1.171000000
C    -1.284000000    -3.927000000     0.698000000
C    -2.415000000    -3.518000000     1.428000000
H    -2.349000000    -2.938000000     2.345000000
C    -1.505000000    -4.586000000    -0.475000000
H    -0.577000000    -4.866000000    -0.967000000
C    -2.807000000    -4.724000000    -1.065000000
O    -3.040000000    -5.422000000    -2.246000000
C    -3.886000000    -4.420000000    -0.227000000
H    -4.916000000    -4.529000000    -0.555000000
C    -3.665000000    -3.744000000     0.921000000
O    -4.790000000    -3.164000000     1.588000000
C    -4.894000000    -2.996000000     2.955000000
C    -5.258000000    -1.712000000     3.356000000
H    -5.383000000    -0.881000000     2.665000000
C    -4.762000000    -3.994000000     3.928000000
H    -4.384000000    -4.954000000     3.586000000
C    -4.917000000    -3.682000000     5.263000000
H    -4.796000000    -4.502000000     5.966000000
C    -5.103000000    -2.350000000     5.665000000
H    -5.073000000    -2.155000000     6.734000000
C    -5.326000000    -1.320000000     4.733000000
O    -5.416000000     0.014000000     5.093000000
C    -4.476000000     0.922000000     4.636000000
C    -4.896000000     2.261000000     4.399000000
H    -5.962000000     2.456000000     4.481000000
C    -3.960000000     3.235000000     3.955000000
O    -4.377000000     4.546000000     3.799000000
C    -3.690000000     5.404000000     2.903000000
C    -3.683000000     5.276000000     1.495000000
H    -4.094000000     4.364000000     1.070000000
C    -3.129000000     6.536000000     3.479000000
H    -3.377000000     6.748000000     4.516000000
C    -2.588000000     7.573000000     2.661000000
H    -1.994000000     8.363000000     3.114000000
C    -2.451000000     7.290000000     1.279000000
H    -1.829000000     7.930000000     0.659000000
C    -3.077000000     6.224000000     0.669000000
O    -2.960000000     5.930000000    -0.679000000
C    -1.797000000     5.251000000    -1.237000000
C    -1.952000000     4.977000000    -2.597000000
H    -2.872000000     5.319000000    -3.063000000
C    -0.991000000     4.322000000    -3.322000000
O    -1.111000000     4.199000000    -4.686000000
C    -0.163000000     3.638000000    -5.476000000
C    -0.336000000     2.415000000    -6.066000000
H    -1.042000000     1.679000000    -5.691000000
C     0.946000000     4.408000000    -5.863000000
H     1.149000000     5.299000000    -5.274000000
C     1.942000000     3.831000000    -6.702000000
H     2.786000000     4.382000000    -7.109000000
C     1.794000000     2.583000000    -7.182000000
H     2.510000000     2.081000000    -7.828000000
C     0.659000000     1.840000000    -6.824000000
O     0.449000000     0.559000000    -7.251000000
C     0.794000000    -0.558000000    -6.481000000
C     0.046000000    -1.784000000    -6.730000000
H    -0.746000000    -1.880000000    -7.468000000
C     0.259000000    -2.816000000    -5.815000000
O    -0.454000000    -3.961000000    -5.944000000
C    -0.749000000    -4.926000000    -5.073000000
C     0.036000000    -6.060000000    -5.004000000
H     0.788000000    -6.242000000    -5.768000000
C    -0.291000000    -7.022000000    -4.041000000
H     0.229000000    -7.976000000    -4.000000000
C    -1.291000000    -6.834000000    -3.096000000
H    -1.338000000    -7.546000000    -2.276000000
C    -2.015000000    -5.669000000    -3.126000000
C    -1.693000000    -4.654000000    -4.100000000
H    -2.297000000    -3.765000000    -4.261000000
C    -1.619000000     0.270000000     0.336000000
H    -2.008000000     1.027000000     1.011000000
C    -0.263000000    -0.038000000     0.370000000
H     0.346000000     0.284000000     1.211000000
C     0.291000000    -0.852000000    -0.575000000
H     1.348000000    -1.112000000    -0.542000000
C    -0.462000000    -1.215000000    -1.659000000
H    -0.026000000    -1.877000000    -2.403000000
C    -1.829000000    -0.981000000    -1.654000000
H    -2.310000000    -1.343000000    -2.560000000
C    -2.396000000    -0.236000000    -0.688000000
C    -3.844000000     0.157000000    -0.738000000
O    -4.590000000    -0.390000000    -1.511000000
O    -4.236000000     1.152000000    -0.174000000
O    -6.486000000     0.476000000    -3.603000000
H    -6.157000000     1.262000000    -4.038000000
H    -5.865000000     0.318000000    -2.892000000
O    -6.077000000     5.292000000    -0.431000000
H    -5.699000000     6.117000000    -0.738000000
H    -5.435000000     4.627000000    -0.681000000
O    -8.609000000    -0.513000000    -0.013000000
H    -7.690000000    -0.767000000    -0.095000000
H    -8.925000000    -1.000000000     0.748000000
O    -4.483000000    -0.976000000    -5.455000000
H    -5.411000000    -1.166000000    -5.317000000
H    -4.403000000    -0.847000000    -6.400000000
O    -7.743000000     3.687000000     2.557000000
H    -7.115000000     3.022000000     2.276000000
H    -8.597000000     3.327000000     2.317000000
O    -4.586000000     3.306000000    -1.627000000
H    -4.736000000     2.817000000    -2.436000000
H    -4.501000000     2.633000000    -0.953000000
O    -4.672000000    -2.306000000    -3.118000000
H    -4.486000000    -1.887000000    -3.958000000
H    -4.696000000    -1.584000000    -2.490000000
O   -10.683000000     0.508000000    -1.357000000
H    -9.966000000     0.177000000    -0.817000000
H   -10.249000000     0.964000000    -2.078000000
O    -2.930000000     1.590000000    -3.761000000
H    -3.236000000     0.774000000    -4.157000000
H    -2.068000000     1.374000000    -3.405000000
O    -5.945000000     2.844000000    -4.557000000
H    -6.012000000     3.640000000    -4.030000000
H    -5.171000000     2.981000000    -5.103000000
O    -8.456000000    -1.552000000    -3.354000000
H    -7.781000000    -0.886000000    -3.486000000
H    -8.661000000    -1.502000000    -2.420000000
O    -3.634000000     3.397000000    -5.920000000
H    -3.388000000     2.919000000    -6.712000000
H    -3.176000000     2.941000000    -5.214000000
O    -8.941000000     1.821000000    -2.972000000
H    -8.073000000     1.439000000    -3.098000000
H    -9.332000000     1.822000000    -3.846000000
O    -8.118000000    -4.293000000    -0.070000000
H    -7.707000000    -4.935000000     0.509000000
H    -7.527000000    -3.540000000    -0.052000000
O    -6.269000000     1.578000000     1.351000000
H    -5.469000000     1.341000000     0.883000000
H    -6.898000000     1.787000000     0.660000000
O    -8.216000000    -0.004000000     3.331000000
H    -8.303000000    -0.770000000     2.763000000
H    -7.397000000     0.407000000     3.055000000
O    -6.324000000    -1.869000000    -0.206000000
H    -5.653000000    -2.140000000     0.420000000
H    -5.834000000    -1.614000000    -0.988000000
O    -7.869000000     2.889000000    -0.514000000
H    -8.223000000     2.592000000    -1.352000000
H    -7.546000000     3.773000000    -0.690000000
O    -6.092000000    -4.703000000    -3.317000000
H    -7.003000000    -4.544000000    -3.070000000
H    -5.644000000    -3.880000000    -3.119000000
