215
-1466.69399
C    -2.979000000     2.283000000     3.469000000
H    -2.405000000     2.955000000     2.837000000
C    -2.266000000     1.419000000     4.363000000
C    -3.045000000     0.428000000     5.004000000
H    -2.634000000    -0.346000000     5.648000000
C    -0.729000000     1.296000000     4.250000000
O    -0.132000000     2.627000000     4.132000000
H    -0.549000000     0.696000000     3.346000000
O    -0.207000000     0.593000000     5.333000000
C     0.750000000    -0.311000000     4.931000000
C     0.281000000    -1.446000000     4.330000000
H    -0.788000000    -1.611000000     4.220000000
C     1.155000000    -2.350000000     3.753000000
O     0.524000000    -3.458000000     3.188000000
C     2.518000000    -2.007000000     3.589000000
C     3.431000000    -2.993000000     2.980000000
H     4.464000000    -2.810000000     3.285000000
C     3.377000000    -2.939000000     1.438000000
C     4.342000000    -2.089000000     0.843000000
H     4.961000000    -1.441000000     1.459000000
H     3.110000000    -3.975000000     3.332000000
C     2.956000000    -0.794000000     4.122000000
H     4.006000000    -0.523000000     4.044000000
C     2.102000000     0.059000000     4.738000000
C     2.522000000     1.470000000     4.922000000
H     3.545000000     1.541000000     5.298000000
H     1.886000000     1.936000000     5.678000000
C     2.276000000     2.287000000     3.690000000
C     3.363000000     2.494000000     2.861000000
H     4.328000000     2.115000000     3.187000000
C     0.996000000     2.774000000     3.321000000
C     0.755000000     3.358000000     2.101000000
H    -0.257000000     3.664000000     1.847000000
C     1.864000000     3.643000000     1.328000000
O     1.598000000     4.387000000     0.176000000
C     1.406000000     3.728000000    -1.058000000
C     0.187000000     4.207000000    -1.796000000
C     0.287000000     4.327000000    -3.157000000
H     1.230000000     4.198000000    -3.682000000
C    -1.090000000     4.510000000    -1.246000000
H    -1.202000000     4.378000000    -0.173000000
O     2.637000000     3.903000000    -1.785000000
H     1.392000000     2.628000000    -1.029000000
C     3.222000000     3.282000000     1.702000000
C     4.327000000     3.542000000     0.671000000
H     5.344000000     3.449000000     1.056000000
H     4.221000000     4.490000000     0.139000000
C     4.230000000     2.602000000    -0.485000000
C     4.978000000     1.416000000    -0.475000000
H     5.567000000     1.239000000     0.421000000
C     3.486000000     2.852000000    -1.675000000
C     3.406000000     1.871000000    -2.712000000
H     2.843000000     2.043000000    -3.626000000
C     4.144000000     0.700000000    -2.583000000
O     3.785000000    -0.254000000    -3.555000000
C     2.707000000    -1.138000000    -3.217000000
C     1.851000000    -1.481000000    -4.419000000
C     1.593000000    -0.473000000    -5.349000000
H     2.008000000     0.520000000    -5.499000000
C     1.028000000    -2.630000000    -4.449000000
H     1.265000000    -3.375000000    -3.694000000
O     3.343000000    -2.361000000    -2.710000000
H     2.045000000    -0.675000000    -2.471000000
C     4.875000000     0.409000000    -1.454000000
C     5.458000000    -0.981000000    -1.250000000
H     6.353000000    -0.881000000    -0.633000000
H     5.656000000    -1.415000000    -2.233000000
C     4.479000000    -1.968000000    -0.560000000
C     3.455000000    -2.592000000    -1.296000000
C     2.418000000    -3.351000000    -0.698000000
H     1.511000000    -3.665000000    -1.207000000
C     2.462000000    -3.641000000     0.648000000
O     1.481000000    -4.265000000     1.227000000
C     0.368000000    -3.459000000     1.804000000
H     0.476000000    -2.409000000     1.493000000
C    -0.995000000    -4.018000000     1.434000000
C    -2.027000000    -4.127000000     2.350000000
H    -1.828000000    -3.726000000     3.340000000
C    -1.233000000    -4.477000000     0.105000000
H    -0.513000000    -4.473000000    -0.709000000
C    -2.517000000    -4.793000000    -0.280000000
O    -2.799000000    -5.379000000    -1.499000000
C    -3.541000000    -4.887000000     0.669000000
H    -4.529000000    -5.247000000     0.392000000
C    -3.313000000    -4.516000000     2.000000000
O    -4.349000000    -4.590000000     2.888000000
C    -4.447000000    -3.866000000     4.105000000
C    -4.710000000    -2.492000000     4.136000000
H    -4.639000000    -1.910000000     3.221000000
C    -4.273000000    -4.569000000     5.336000000
H    -3.924000000    -5.598000000     5.300000000
C    -4.529000000    -3.922000000     6.553000000
H    -4.411000000    -4.595000000     7.398000000
C    -4.864000000    -2.595000000     6.617000000
H    -4.896000000    -2.143000000     7.605000000
C    -4.953000000    -1.863000000     5.417000000
O    -5.253000000    -0.549000000     5.458000000
C    -4.445000000     0.411000000     4.832000000
C    -5.150000000     1.389000000     4.092000000
H    -6.234000000     1.458000000     4.051000000
C    -4.371000000     2.258000000     3.329000000
O    -5.067000000     3.000000000     2.444000000
C    -4.625000000     4.121000000     1.760000000
C    -4.384000000     4.127000000     0.365000000
H    -4.621000000     3.226000000    -0.194000000
C    -4.190000000     5.307000000     2.437000000
H    -4.193000000     5.245000000     3.522000000
C    -3.581000000     6.386000000     1.803000000
H    -3.088000000     7.200000000     2.329000000
C    -3.404000000     6.334000000     0.452000000
H    -2.947000000     7.155000000    -0.095000000
C    -3.698000000     5.194000000    -0.264000000
O    -3.442000000     5.150000000    -1.593000000
C    -2.155000000     5.028000000    -2.038000000
C    -1.971000000     5.032000000    -3.420000000
H    -2.788000000     5.299000000    -4.085000000
C    -0.768000000     4.718000000    -3.955000000
O    -0.672000000     4.736000000    -5.325000000
C     0.063000000     3.859000000    -6.149000000
C    -0.223000000     2.512000000    -6.185000000
H    -1.050000000     2.120000000    -5.598000000
C     1.067000000     4.364000000    -6.958000000
H     1.253000000     5.429000000    -6.848000000
C     1.812000000     3.527000000    -7.804000000
H     2.628000000     3.914000000    -8.409000000
C     1.449000000     2.191000000    -7.877000000
H     1.949000000     1.512000000    -8.562000000
C     0.410000000     1.682000000    -7.066000000
O     0.102000000     0.288000000    -7.150000000
C     0.560000000    -0.649000000    -6.216000000
C    -0.084000000    -1.908000000    -6.400000000
H    -0.757000000    -2.153000000    -7.217000000
C     0.113000000    -2.853000000    -5.451000000
O    -0.654000000    -3.993000000    -5.501000000
C    -0.682000000    -4.857000000    -4.446000000
C     0.033000000    -6.072000000    -4.465000000
H     0.875000000    -6.204000000    -5.139000000
C    -0.281000000    -7.009000000    -3.482000000
H     0.291000000    -7.933000000    -3.485000000
C    -1.324000000    -6.825000000    -2.584000000
H    -1.632000000    -7.584000000    -1.870000000
C    -1.954000000    -5.596000000    -2.478000000
C    -1.683000000    -4.648000000    -3.458000000
H    -2.302000000    -3.758000000    -3.534000000
C    -1.637000000    -0.137000000     0.315000000
H    -2.117000000    -0.434000000     1.244000000
C    -0.267000000    -0.078000000     0.287000000
H     0.431000000    -0.236000000     1.106000000
C     0.385000000     0.230000000    -0.895000000
H     1.520000000     0.338000000    -0.898000000
C    -0.367000000     0.496000000    -2.019000000
H     0.054000000     0.824000000    -2.967000000
C    -1.750000000     0.505000000    -1.915000000
H    -2.288000000     0.769000000    -2.822000000
C    -2.467000000     0.228000000    -0.716000000
C    -4.033000000     0.357000000    -0.662000000
O    -4.560000000     0.837000000    -1.656000000
O    -4.633000000     0.137000000     0.323000000
O    -6.756000000    -0.768000000    -2.383000000
H    -7.465000000    -0.302000000    -2.825000000
H    -5.975000000    -0.243000000    -2.563000000
O    -6.912000000     4.332000000    -3.236000000
H    -7.511000000     4.041000000    -3.924000000
H    -6.562000000     3.522000000    -2.865000000
O    -7.308000000     5.716000000    -0.835000000
H    -6.487000000     5.281000000    -0.604000000
H    -7.454000000     5.480000000    -1.751000000
O    -8.074000000     1.075000000    -4.002000000
H    -7.625000000     1.355000000    -4.800000000
H    -8.435000000     1.882000000    -3.635000000
O    -6.370000000     4.337000000     4.863000000
H    -6.486000000     3.586000000     4.280000000
H    -6.473000000     3.974000000     5.743000000
O    -6.695000000     2.481000000    -1.429000000
H    -5.987000000     1.847000000    -1.308000000
H    -7.468000000     2.048000000    -1.069000000
O    -4.219000000     0.235000000    -5.328000000
H    -4.410000000    -0.522000000    -4.774000000
H    -4.046000000     0.946000000    -4.711000000
O    -5.695000000    -3.692000000    -2.716000000
H    -5.648000000    -4.199000000    -1.906000000
H    -6.433000000    -3.097000000    -2.584000000
O    -4.952000000    -4.020000000    -5.307000000
H    -5.861000000    -3.922000000    -5.592000000
H    -4.963000000    -3.772000000    -4.383000000
O    -3.857000000     2.377000000    -3.661000000
H    -4.182000000     2.099000000    -2.804000000
H    -3.154000000     2.995000000    -3.461000000
O   -10.082000000    -0.871000000    -3.278000000
H    -9.541000000    -0.282000000    -3.803000000
H   -10.211000000    -0.404000000    -2.452000000
O    -5.171000000     3.142000000    -5.913000000
H    -4.883000000     2.900000000    -5.033000000
H    -4.760000000     2.495000000    -6.486000000
O    -9.583000000     2.966000000    -2.933000000
H   -10.521000000     2.771000000    -2.929000000
H    -9.261000000     2.609000000    -2.106000000
O    -9.169000000     1.233000000    -0.610000000
H    -9.940000000     0.817000000    -0.224000000
H    -8.435000000     0.906000000    -0.090000000
O    -9.919000000     4.286000000     0.498000000
H    -9.420000000     3.620000000     0.026000000
H    -9.496000000     4.341000000     1.355000000
O    -7.504000000    -4.562000000    -0.687000000
H    -6.996000000    -5.104000000    -0.083000000
H    -7.329000000    -3.664000000    -0.407000000
O    -6.812000000     1.139000000     1.314000000
H    -6.008000000     0.885000000     0.861000000
H    -6.710000000     2.076000000     1.478000000
O    -8.325000000    -0.642000000     2.828000000
H    -8.230000000    -1.396000000     2.245000000
H    -7.740000000     0.020000000     2.460000000
O    -6.324000000    -2.006000000     0.065000000
H    -6.117000000    -1.270000000     0.641000000
H    -6.310000000    -1.631000000    -0.816000000
