215
-1455.42742
C    -2.305000000     2.315000000     3.798000000
H    -1.725000000     3.137000000     3.387000000
C    -1.593000000     1.151000000     4.061000000
C    -2.215000000    -0.044000000     4.555000000
H    -1.662000000    -0.946000000     4.804000000
C    -0.081000000     1.121000000     3.865000000
O     0.550000000     2.411000000     4.009000000
H     0.094000000     0.855000000     2.812000000
O     0.656000000     0.173000000     4.812000000
C     1.673000000    -0.565000000     4.261000000
C     1.326000000    -1.802000000     3.920000000
H     0.420000000    -2.258000000     4.313000000
C     2.104000000    -2.577000000     3.113000000
O     1.585000000    -3.807000000     2.712000000
C     3.388000000    -2.078000000     2.783000000
C     4.334000000    -2.954000000     1.909000000
H     5.368000000    -2.682000000     2.133000000
C     4.061000000    -2.846000000     0.457000000
C     4.766000000    -1.925000000    -0.324000000
H     5.448000000    -1.270000000     0.212000000
H     4.235000000    -3.989000000     2.242000000
C     3.787000000    -0.799000000     3.204000000
H     4.744000000    -0.427000000     2.847000000
C     2.914000000     0.024000000     3.921000000
C     3.237000000     1.473000000     4.228000000
H     4.327000000     1.476000000     4.295000000
H     2.952000000     1.779000000     5.237000000
C     2.787000000     2.457000000     3.151000000
C     3.595000000     2.889000000     2.084000000
H     4.619000000     2.531000000     2.021000000
C     1.482000000     2.910000000     3.131000000
C     0.980000000     3.780000000     2.224000000
H    -0.040000000     4.144000000     2.315000000
C     1.790000000     4.187000000     1.225000000
O     1.321000000     4.937000000     0.277000000
C     0.884000000     4.225000000    -0.894000000
C    -0.501000000     4.727000000    -1.309000000
C    -0.906000000     4.550000000    -2.691000000
H    -0.189000000     4.126000000    -3.389000000
C    -1.378000000     5.268000000    -0.395000000
H    -1.003000000     5.448000000     0.610000000
O     1.865000000     4.327000000    -1.965000000
H     0.783000000     3.149000000    -0.693000000
C     3.088000000     3.691000000     1.048000000
C     4.063000000     4.072000000    -0.106000000
H     5.091000000     4.073000000     0.264000000
H     3.940000000     5.113000000    -0.411000000
C     3.835000000     3.023000000    -1.248000000
C     4.549000000     1.836000000    -1.359000000
H     5.348000000     1.644000000    -0.647000000
C     2.725000000     3.229000000    -2.108000000
C     2.431000000     2.315000000    -3.129000000
H     1.527000000     2.434000000    -3.722000000
C     3.157000000     1.098000000    -3.205000000
O     2.664000000     0.171000000    -4.051000000
C     2.054000000    -1.043000000    -3.633000000
C     0.856000000    -1.375000000    -4.479000000
C     0.052000000    -0.365000000    -5.012000000
H     0.281000000     0.675000000    -4.796000000
C     0.388000000    -2.677000000    -4.545000000
H     0.863000000    -3.535000000    -4.076000000
O     2.972000000    -2.104000000    -3.563000000
H     1.629000000    -0.962000000    -2.622000000
C     4.237000000     0.886000000    -2.374000000
C     5.058000000    -0.449000000    -2.448000000
H     6.020000000    -0.246000000    -1.973000000
H     5.310000000    -0.722000000    -3.474000000
C     4.391000000    -1.639000000    -1.653000000
C     3.390000000    -2.451000000    -2.271000000
C     2.750000000    -3.397000000    -1.508000000
H     2.057000000    -4.086000000    -1.983000000
C     3.070000000    -3.619000000    -0.172000000
O     2.207000000    -4.411000000     0.640000000
C     1.209000000    -3.781000000     1.379000000
H     1.190000000    -2.746000000     1.007000000
C    -0.143000000    -4.540000000     1.125000000
C    -1.241000000    -4.291000000     1.977000000
H    -1.089000000    -3.618000000     2.817000000
C    -0.352000000    -5.391000000    -0.009000000
H     0.446000000    -5.526000000    -0.735000000
C    -1.516000000    -6.124000000    -0.155000000
O    -1.748000000    -6.941000000    -1.263000000
C    -2.618000000    -5.802000000     0.696000000
H    -3.549000000    -6.359000000     0.618000000
C    -2.450000000    -4.941000000     1.795000000
O    -3.489000000    -4.781000000     2.719000000
C    -3.410000000    -4.195000000     3.994000000
C    -3.713000000    -2.869000000     4.128000000
H    -3.961000000    -2.326000000     3.219000000
C    -3.186000000    -5.005000000     5.091000000
H    -2.900000000    -6.048000000     4.977000000
C    -3.307000000    -4.442000000     6.385000000
H    -3.247000000    -5.112000000     7.239000000
C    -3.509000000    -3.047000000     6.513000000
H    -3.786000000    -2.725000000     7.513000000
C    -3.788000000    -2.287000000     5.385000000
O    -4.189000000    -0.997000000     5.591000000
C    -3.547000000     0.076000000     4.954000000
C    -4.242000000     1.255000000     4.784000000
H    -5.258000000     1.406000000     5.139000000
C    -3.606000000     2.357000000     4.200000000
O    -4.282000000     3.538000000     4.151000000
C    -3.982000000     4.694000000     3.465000000
C    -3.881000000     4.763000000     2.077000000
H    -3.975000000     3.853000000     1.491000000
C    -3.844000000     5.831000000     4.197000000
H    -3.909000000     5.842000000     5.282000000
C    -3.624000000     7.079000000     3.575000000
H    -3.451000000     8.016000000     4.098000000
C    -3.468000000     7.127000000     2.191000000
H    -3.398000000     8.099000000     1.708000000
C    -3.645000000     6.022000000     1.446000000
O    -3.613000000     6.132000000     0.096000000
C    -2.645000000     5.660000000    -0.845000000
C    -3.118000000     5.440000000    -2.111000000
H    -4.126000000     5.762000000    -2.359000000
C    -2.238000000     4.927000000    -3.063000000
O    -2.772000000     4.744000000    -4.358000000
C    -2.101000000     3.867000000    -5.236000000
C    -2.403000000     2.483000000    -5.242000000
H    -3.258000000     2.073000000    -4.710000000
C    -1.195000000     4.401000000    -6.194000000
H    -1.038000000     5.473000000    -6.285000000
C    -0.445000000     3.495000000    -7.009000000
H     0.228000000     3.824000000    -7.796000000
C    -0.756000000     2.109000000    -6.950000000
H    -0.272000000     1.390000000    -7.606000000
C    -1.757000000     1.657000000    -6.062000000
O    -2.117000000     0.348000000    -6.025000000
C    -1.176000000    -0.680000000    -5.706000000
C    -1.542000000    -1.987000000    -5.845000000
H    -2.449000000    -2.269000000    -6.374000000
C    -0.761000000    -2.965000000    -5.277000000
O    -1.239000000    -4.253000000    -5.251000000
C    -0.823000000    -5.396000000    -4.467000000
C    -0.222000000    -6.453000000    -5.157000000
H    -0.013000000    -6.296000000    -6.212000000
C     0.181000000    -7.513000000    -4.401000000
H     0.665000000    -8.385000000    -4.832000000
C    -0.306000000    -7.742000000    -3.094000000
H    -0.120000000    -8.674000000    -2.567000000
C    -1.194000000    -6.716000000    -2.513000000
C    -1.377000000    -5.553000000    -3.222000000
H    -1.991000000    -4.769000000    -2.787000000
C    -2.718000000    -0.063000000     0.877000000
H    -3.500000000    -0.213000000     1.618000000
C    -1.461000000    -0.656000000     1.146000000
H    -1.301000000    -1.341000000     1.975000000
C    -0.408000000    -0.301000000     0.386000000
H     0.549000000    -0.845000000     0.553000000
C    -0.588000000     0.476000000    -0.767000000
H     0.144000000     0.558000000    -1.566000000
C    -1.857000000     0.943000000    -1.147000000
H    -1.951000000     1.486000000    -2.084000000
C    -2.955000000     0.689000000    -0.299000000
C    -4.287000000     1.305000000    -0.644000000
O    -4.304000000     2.236000000    -1.400000000
O    -5.288000000     0.855000000    -0.185000000
O    -4.887000000    -3.367000000     0.092000000
H    -5.326000000    -2.697000000    -0.432000000
H    -4.004000000    -3.418000000    -0.274000000
O    -8.644000000     2.513000000    -3.669000000
H    -8.488000000     2.077000000    -2.831000000
H    -8.859000000     1.802000000    -4.272000000
O   -10.320000000    -0.511000000    -1.279000000
H    -9.801000000    -0.606000000    -0.480000000
H   -11.029000000    -1.146000000    -1.180000000
O    -4.118000000    -2.139000000    -3.398000000
H    -3.790000000    -2.903000000    -3.872000000
H    -5.022000000    -2.041000000    -3.697000000
O    -5.973000000     4.199000000    -0.351000000
H    -5.128000000     3.813000000    -0.582000000
H    -6.620000000     3.584000000    -0.697000000
O    -2.452000000    -2.329000000    -1.320000000
H    -2.836000000    -2.072000000    -2.158000000
H    -1.917000000    -1.579000000    -1.061000000
O    -6.983000000    -3.930000000    -1.868000000
H    -7.024000000    -4.021000000    -2.820000000
H    -6.618000000    -3.057000000    -1.727000000
O    -6.727000000    -1.220000000    -4.043000000
H    -6.562000000    -0.289000000    -4.189000000
H    -7.278000000    -1.484000000    -4.780000000
O    -5.564000000     2.980000000    -3.591000000
H    -4.971000000     2.660000000    -2.910000000
H    -6.326000000     3.304000000    -3.112000000
O    -6.412000000    -1.350000000    -1.387000000
H    -5.984000000    -0.537000000    -1.117000000
H    -6.616000000    -1.218000000    -2.312000000
O    -9.171000000    -1.128000000     1.154000000
H    -8.413000000    -0.742000000     1.592000000
H    -9.153000000    -2.050000000     1.410000000
O    -6.765000000     1.540000000    -5.635000000
H    -6.054000000     1.435000000    -6.267000000
H    -6.449000000     2.209000000    -5.028000000
O    -7.100000000     4.528000000     2.453000000
H    -6.562000000     4.463000000     1.663000000
H    -6.469000000     4.537000000     3.172000000
O    -7.498000000     2.063000000    -0.993000000
H    -6.624000000     1.715000000    -0.813000000
H    -7.977000000     1.942000000    -0.173000000
O    -6.561000000    -2.573000000     2.426000000
H    -7.051000000    -3.146000000     3.017000000
H    -6.217000000    -3.160000000     1.753000000
O    -6.329000000     7.012000000     0.288000000
H    -6.426000000     6.149000000    -0.114000000
H    -5.490000000     6.970000000     0.747000000
O    -6.665000000     0.264000000     1.948000000
H    -6.065000000     0.605000000     1.284000000
H    -6.489000000    -0.677000000     1.969000000
O    -9.090000000     1.429000000     2.849000000
H    -8.203000000     1.261000000     2.531000000
H    -9.509000000     1.918000000     2.142000000
O    -5.420000000     5.162000000    -5.367000000
H    -4.717000000     5.697000000    -5.737000000
H    -4.966000000     4.469000000    -4.887000000
