215
-1457.25374
C    -2.211000000     3.099000000     3.306000000
H    -1.555000000     3.862000000     2.896000000
C    -1.531000000     1.946000000     3.791000000
C    -2.311000000     0.935000000     4.290000000
H    -1.895000000    -0.040000000     4.527000000
C    -0.005000000     1.724000000     3.603000000
O     0.766000000     2.977000000     3.842000000
H     0.098000000     1.376000000     2.565000000
O     0.434000000     0.765000000     4.662000000
C     1.343000000    -0.222000000     4.297000000
C     0.724000000    -1.425000000     3.943000000
H    -0.352000000    -1.558000000     4.027000000
C     1.480000000    -2.376000000     3.354000000
O     0.892000000    -3.574000000     3.064000000
C     2.881000000    -2.188000000     3.166000000
C     3.735000000    -3.270000000     2.446000000
H     4.794000000    -3.123000000     2.671000000
C     3.511000000    -3.345000000     0.940000000
C     4.440000000    -2.658000000     0.036000000
H     5.352000000    -2.269000000     0.482000000
H     3.476000000    -4.278000000     2.778000000
C     3.404000000    -0.983000000     3.504000000
H     4.480000000    -0.871000000     3.393000000
C     2.630000000     0.032000000     4.010000000
C     3.209000000     1.376000000     4.353000000
H     4.248000000     1.368000000     4.687000000
H     2.657000000     1.727000000     5.228000000
C     3.019000000     2.426000000     3.164000000
C     3.928000000     2.313000000     2.052000000
H     4.735000000     1.585000000     2.050000000
C     1.879000000     3.266000000     3.023000000
C     1.711000000     4.080000000     1.890000000
H     0.819000000     4.697000000     1.818000000
C     2.630000000     3.939000000     0.856000000
O     2.382000000     4.576000000    -0.307000000
C     1.675000000     3.729000000    -1.224000000
C     0.420000000     4.381000000    -1.830000000
C    -0.073000000     3.944000000    -3.060000000
H     0.471000000     3.238000000    -3.682000000
C    -0.360000000     5.260000000    -1.045000000
H     0.075000000     5.681000000    -0.142000000
O     2.598000000     3.381000000    -2.298000000
H     1.470000000     2.759000000    -0.748000000
C     3.707000000     3.063000000     0.877000000
C     4.712000000     2.854000000    -0.292000000
H     5.659000000     2.541000000     0.153000000
H     4.945000000     3.818000000    -0.749000000
C     4.329000000     1.875000000    -1.407000000
C     4.948000000     0.595000000    -1.529000000
H     5.698000000     0.295000000    -0.801000000
C     3.294000000     2.192000000    -2.329000000
C     2.908000000     1.230000000    -3.278000000
H     2.061000000     1.500000000    -3.904000000
C     3.561000000    -0.055000000    -3.391000000
O     2.978000000    -1.075000000    -4.143000000
C     1.939000000    -1.700000000    -3.411000000
C     0.687000000    -1.858000000    -4.238000000
C     0.458000000    -0.991000000    -5.363000000
H     1.156000000    -0.187000000    -5.580000000
C    -0.315000000    -2.767000000    -3.831000000
H    -0.198000000    -3.301000000    -2.892000000
O     2.428000000    -2.947000000    -2.965000000
H     1.644000000    -1.039000000    -2.583000000
C     4.558000000    -0.382000000    -2.437000000
C     5.016000000    -1.832000000    -2.284000000
H     6.040000000    -1.785000000    -1.909000000
H     5.155000000    -2.460000000    -3.166000000
C     4.068000000    -2.515000000    -1.298000000
C     2.842000000    -3.056000000    -1.727000000
C     2.176000000    -3.928000000    -0.910000000
H     1.270000000    -4.390000000    -1.293000000
C     2.388000000    -3.984000000     0.466000000
O     1.495000000    -4.703000000     1.171000000
C     0.506000000    -3.856000000     1.731000000
H     0.292000000    -2.942000000     1.157000000
C    -0.858000000    -4.650000000     1.764000000
C    -1.802000000    -4.346000000     2.778000000
H    -1.577000000    -3.690000000     3.615000000
C    -1.267000000    -5.545000000     0.795000000
H    -0.568000000    -5.722000000    -0.018000000
C    -2.532000000    -6.071000000     0.742000000
O    -2.884000000    -6.792000000    -0.380000000
C    -3.466000000    -5.770000000     1.659000000
H    -4.495000000    -6.118000000     1.656000000
C    -3.131000000    -4.836000000     2.657000000
O    -4.043000000    -4.364000000     3.610000000
C    -3.842000000    -3.322000000     4.525000000
C    -4.152000000    -2.030000000     4.222000000
H    -4.577000000    -1.848000000     3.238000000
C    -3.372000000    -3.742000000     5.760000000
H    -3.018000000    -4.766000000     5.856000000
C    -3.246000000    -2.762000000     6.763000000
H    -2.807000000    -2.969000000     7.737000000
C    -3.696000000    -1.500000000     6.539000000
H    -3.580000000    -0.738000000     7.305000000
C    -4.058000000    -1.140000000     5.241000000
O    -4.487000000     0.101000000     4.978000000
C    -3.673000000     1.084000000     4.436000000
C    -4.302000000     2.197000000     4.012000000
H    -5.388000000     2.192000000     4.040000000
C    -3.586000000     3.244000000     3.443000000
O    -4.284000000     4.319000000     2.924000000
C    -3.675000000     5.494000000     2.419000000
C    -3.145000000     5.504000000     1.085000000
H    -3.061000000     4.616000000     0.464000000
C    -3.749000000     6.723000000     3.105000000
H    -4.260000000     6.918000000     4.044000000
C    -3.258000000     7.904000000     2.516000000
H    -3.452000000     8.860000000     2.996000000
C    -2.578000000     7.829000000     1.279000000
H    -2.334000000     8.737000000     0.733000000
C    -2.695000000     6.702000000     0.504000000
O    -2.293000000     6.712000000    -0.834000000
C    -1.621000000     5.678000000    -1.476000000
C    -2.091000000     5.269000000    -2.737000000
H    -3.043000000     5.679000000    -3.064000000
C    -1.290000000     4.440000000    -3.508000000
O    -1.876000000     4.049000000    -4.694000000
C    -1.280000000     3.402000000    -5.723000000
C    -1.687000000     2.030000000    -5.890000000
H    -2.401000000     1.577000000    -5.207000000
C    -0.321000000     3.960000000    -6.536000000
H    -0.166000000     5.034000000    -6.484000000
C     0.222000000     3.115000000    -7.554000000
H     0.844000000     3.555000000    -8.330000000
C    -0.031000000     1.745000000    -7.603000000
H     0.447000000     1.132000000    -8.363000000
C    -1.050000000     1.243000000    -6.836000000
O    -1.300000000    -0.075000000    -6.893000000
C    -0.790000000    -1.102000000    -6.111000000
C    -1.764000000    -2.013000000    -5.664000000
H    -2.717000000    -2.111000000    -6.177000000
C    -1.512000000    -2.886000000    -4.596000000
O    -2.480000000    -3.826000000    -4.113000000
C    -2.194000000    -5.013000000    -3.529000000
C    -1.158000000    -5.757000000    -3.974000000
H    -0.686000000    -5.340000000    -4.859000000
C    -0.680000000    -6.903000000    -3.346000000
H     0.137000000    -7.549000000    -3.656000000
C    -1.286000000    -7.326000000    -2.130000000
H    -0.864000000    -8.161000000    -1.577000000
C    -2.343000000    -6.586000000    -1.643000000
C    -2.791000000    -5.409000000    -2.316000000
H    -3.533000000    -4.808000000    -1.796000000
C    -1.997000000    -0.398000000     0.286000000
H    -2.974000000    -0.574000000     0.730000000
C    -0.867000000    -0.455000000     1.091000000
H    -0.957000000    -0.660000000     2.155000000
C     0.362000000    -0.107000000     0.556000000
H     1.328000000    -0.113000000     1.216000000
C     0.454000000     0.313000000    -0.730000000
H     1.443000000     0.685000000    -0.989000000
C    -0.626000000     0.377000000    -1.524000000
H    -0.594000000     0.646000000    -2.577000000
C    -1.861000000    -0.032000000    -1.079000000
C    -3.106000000     0.066000000    -1.983000000
O    -2.989000000     0.352000000    -3.161000000
O    -4.210000000    -0.097000000    -1.495000000
O    -7.335000000     2.174000000    -4.459000000
H    -7.337000000     1.588000000    -3.701000000
H    -7.347000000     3.053000000    -4.081000000
O    -7.770000000     4.391000000    -2.936000000
H    -8.519000000     4.139000000    -2.396000000
H    -7.017000000     4.325000000    -2.348000000
O    -4.751000000     0.857000000    -7.299000000
H    -4.991000000     1.743000000    -7.026000000
H    -4.994000000     0.303000000    -6.557000000
O    -4.214000000     2.789000000    -3.575000000
H    -4.008000000     1.858000000    -3.488000000
H    -3.434000000     3.170000000    -3.978000000
O    -4.248000000    -5.127000000    -6.002000000
H    -4.641000000    -4.303000000    -5.713000000
H    -3.755000000    -5.437000000    -5.242000000
O    -7.679000000    -2.739000000    -0.288000000
H    -6.847000000    -2.652000000    -0.754000000
H    -7.512000000    -3.408000000     0.376000000
O    -7.389000000    -1.911000000    -6.406000000
H    -6.627000000    -1.492000000    -6.008000000
H    -8.133000000    -1.390000000    -6.107000000
O    -4.949000000    -2.608000000    -1.467000000
H    -4.782000000    -1.667000000    -1.517000000
H    -4.177000000    -2.965000000    -1.028000000
O    -5.067000000    -0.259000000    -4.892000000
H    -4.185000000    -0.227000000    -4.521000000
H    -5.629000000     0.103000000    -4.207000000
O    -5.242000000    -2.878000000    -4.238000000
H    -5.038000000    -3.036000000    -3.316000000
H    -5.221000000    -1.925000000    -4.329000000
O    -8.378000000     0.023000000     1.255000000
H    -9.307000000     0.235000000     1.164000000
H    -8.343000000    -0.932000000     1.196000000
O    -9.195000000    -0.577000000    -4.949000000
H    -8.856000000    -0.876000000    -4.105000000
H    -8.917000000     0.337000000    -5.008000000
O    -8.943000000     1.966000000    -1.447000000
H    -8.133000000     1.759000000    -0.981000000
H    -9.356000000     1.116000000    -1.598000000
O    -6.736000000     0.444000000    -2.588000000
H    -7.119000000    -0.420000000    -2.433000000
H    -6.094000000     0.551000000    -1.886000000
O    -7.690000000    -1.938000000    -3.085000000
H    -7.431000000    -2.796000000    -3.419000000
H    -7.987000000    -2.108000000    -2.191000000
O    -5.730000000     3.954000000    -1.196000000
H    -5.154000000     3.689000000    -1.913000000
H    -5.587000000     3.294000000    -0.518000000
O    -5.047000000     1.736000000     0.158000000
H    -4.657000000     1.240000000    -0.562000000
H    -4.472000000     1.565000000     0.904000000
O    -7.556000000     2.577000000     1.500000000
H    -7.812000000     1.678000000     1.293000000
H    -6.745000000     2.714000000     1.010000000
O    -5.253000000     3.745000000    -6.334000000
H    -4.832000000     3.296000000    -5.601000000
H    -6.187000000     3.569000000    -6.219000000
