215
-1421.08503
C    -1.909000000     3.240000000     3.306000000
H    -1.245000000     3.889000000     2.740000000
C    -1.313000000     2.205000000     3.970000000
C    -2.110000000     1.164000000     4.420000000
H    -1.731000000     0.297000000     4.955000000
C     0.128000000     1.990000000     3.776000000
O     0.980000000     3.286000000     3.690000000
H     0.355000000     1.497000000     2.819000000
O     0.641000000     1.124000000     4.863000000
C     1.395000000     0.045000000     4.423000000
C     0.734000000    -1.124000000     4.177000000
H    -0.327000000    -1.191000000     4.404000000
C     1.390000000    -2.277000000     3.780000000
O     0.718000000    -3.451000000     3.482000000
C     2.749000000    -2.217000000     3.473000000
C     3.435000000    -3.388000000     2.832000000
H     4.504000000    -3.480000000     3.036000000
C     3.277000000    -3.271000000     1.344000000
C     4.183000000    -2.688000000     0.447000000
H     5.077000000    -2.198000000     0.823000000
H     3.009000000    -4.350000000     3.124000000
C     3.422000000    -0.967000000     3.639000000
H     4.461000000    -0.835000000     3.349000000
C     2.766000000     0.208000000     4.047000000
C     3.482000000     1.571000000     4.181000000
H     4.564000000     1.437000000     4.249000000
H     3.137000000     2.059000000     5.095000000
C     3.204000000     2.514000000     2.935000000
C     4.075000000     2.441000000     1.842000000
H     4.914000000     1.753000000     1.786000000
C     2.030000000     3.225000000     2.767000000
C     1.760000000     3.929000000     1.610000000
H     0.755000000     4.316000000     1.459000000
C     2.660000000     3.911000000     0.541000000
O     2.299000000     4.410000000    -0.587000000
C     1.720000000     3.672000000    -1.568000000
C     0.511000000     4.400000000    -2.155000000
C     0.068000000     3.954000000    -3.378000000
H     0.599000000     3.120000000    -3.829000000
C    -0.237000000     5.374000000    -1.409000000
H     0.073000000     5.594000000    -0.391000000
O     2.724000000     3.432000000    -2.591000000
H     1.379000000     2.738000000    -1.097000000
C     3.870000000     3.206000000     0.702000000
C     4.794000000     3.116000000    -0.458000000
H     5.797000000     2.861000000    -0.108000000
H     4.846000000     4.041000000    -1.035000000
C     4.369000000     2.043000000    -1.478000000
C     4.852000000     0.761000000    -1.325000000
H     5.561000000     0.671000000    -0.506000000
C     3.412000000     2.266000000    -2.503000000
C     2.976000000     1.161000000    -3.268000000
H     2.232000000     1.437000000    -4.010000000
C     3.493000000    -0.104000000    -3.160000000
O     2.926000000    -1.094000000    -3.916000000
C     1.921000000    -1.913000000    -3.244000000
C     0.730000000    -2.244000000    -4.192000000
C     0.145000000    -1.216000000    -4.946000000
H     0.550000000    -0.226000000    -4.757000000
C     0.097000000    -3.507000000    -4.175000000
H     0.504000000    -4.391000000    -3.690000000
O     2.518000000    -3.143000000    -2.815000000
H     1.587000000    -1.265000000    -2.420000000
C     4.447000000    -0.320000000    -2.165000000
C     4.927000000    -1.731000000    -1.803000000
H     5.875000000    -1.526000000    -1.301000000
H     5.266000000    -2.280000000    -2.684000000
C     3.896000000    -2.549000000    -0.894000000
C     2.870000000    -3.253000000    -1.507000000
C     2.016000000    -3.938000000    -0.657000000
H     1.199000000    -4.514000000    -1.084000000
C     2.164000000    -3.824000000     0.727000000
O     1.180000000    -4.436000000     1.391000000
C     0.246000000    -3.635000000     2.103000000
H     0.331000000    -2.662000000     1.596000000
C    -1.165000000    -4.118000000     2.006000000
C    -1.937000000    -4.171000000     3.173000000
H    -1.577000000    -3.813000000     4.133000000
C    -1.705000000    -4.370000000     0.724000000
H    -1.025000000    -4.315000000    -0.122000000
C    -2.980000000    -4.815000000     0.605000000
O    -3.602000000    -4.974000000    -0.600000000
C    -3.818000000    -4.922000000     1.704000000
H    -4.845000000    -5.177000000     1.455000000
C    -3.271000000    -4.637000000     2.981000000
O    -4.128000000    -4.508000000     4.051000000
C    -4.171000000    -3.409000000     4.866000000
C    -4.354000000    -2.133000000     4.363000000
H    -4.758000000    -1.952000000     3.371000000
C    -3.928000000    -3.565000000     6.202000000
H    -3.669000000    -4.524000000     6.643000000
C    -3.951000000    -2.470000000     7.071000000
H    -3.937000000    -2.694000000     8.135000000
C    -4.059000000    -1.155000000     6.581000000
H    -4.056000000    -0.330000000     7.289000000
C    -4.145000000    -1.039000000     5.199000000
O    -4.398000000     0.185000000     4.579000000
C    -3.552000000     1.241000000     4.424000000
C    -4.080000000     2.401000000     3.892000000
H    -5.164000000     2.472000000     3.892000000
C    -3.305000000     3.368000000     3.240000000
O    -3.990000000     4.334000000     2.442000000
C    -3.371000000     5.379000000     2.009000000
C    -3.191000000     5.535000000     0.611000000
H    -3.607000000     4.851000000    -0.124000000
C    -2.780000000     6.247000000     2.849000000
H    -2.858000000     6.045000000     3.914000000
C    -2.072000000     7.350000000     2.378000000
H    -1.683000000     8.090000000     3.073000000
C    -1.827000000     7.532000000     1.022000000
H    -1.350000000     8.433000000     0.644000000
C    -2.400000000     6.615000000     0.117000000
O    -2.221000000     6.767000000    -1.260000000
C    -1.362000000     5.908000000    -1.997000000
C    -1.729000000     5.577000000    -3.346000000
H    -2.631000000     5.998000000    -3.781000000
C    -0.991000000     4.594000000    -3.992000000
O    -1.338000000     4.211000000    -5.225000000
C    -0.906000000     3.058000000    -5.935000000
C    -1.359000000     1.755000000    -5.800000000
H    -2.032000000     1.591000000    -4.962000000
C    -0.161000000     3.380000000    -7.088000000
H     0.251000000     4.371000000    -7.257000000
C     0.208000000     2.360000000    -8.047000000
H     0.946000000     2.571000000    -8.816000000
C    -0.158000000     1.063000000    -7.758000000
H     0.301000000     0.300000000    -8.381000000
C    -1.006000000     0.772000000    -6.705000000
O    -1.592000000    -0.501000000    -6.584000000
C    -0.933000000    -1.478000000    -5.870000000
C    -1.497000000    -2.730000000    -5.932000000
H    -2.428000000    -2.843000000    -6.483000000
C    -1.061000000    -3.675000000    -4.983000000
O    -1.739000000    -4.882000000    -4.998000000
C    -1.980000000    -5.494000000    -3.846000000
C    -1.537000000    -6.838000000    -3.713000000
H    -1.052000000    -7.294000000    -4.572000000
C    -1.823000000    -7.506000000    -2.521000000
H    -1.533000000    -8.546000000    -2.397000000
C    -2.614000000    -6.920000000    -1.500000000
H    -2.841000000    -7.482000000    -0.597000000
C    -2.899000000    -5.549000000    -1.618000000
C    -2.613000000    -4.833000000    -2.806000000
H    -2.920000000    -3.794000000    -2.891000000
C    -2.433000000    -0.048000000     0.249000000
H    -3.338000000    -0.311000000     0.790000000
C    -1.216000000    -0.136000000     0.900000000
H    -1.265000000    -0.283000000     1.976000000
C     0.011000000    -0.010000000     0.225000000
H     0.913000000    -0.049000000     0.812000000
C    -0.028000000     0.349000000    -1.106000000
H     0.944000000     0.591000000    -1.529000000
C    -1.256000000     0.339000000    -1.873000000
H    -1.216000000     0.535000000    -2.941000000
C    -2.509000000     0.140000000    -1.191000000
C    -3.793000000     0.040000000    -1.942000000
O    -3.872000000     0.320000000    -3.110000000
O    -4.861000000    -0.095000000    -1.380000000
O    -8.158000000     1.716000000    -6.772000000
H    -7.467000000     1.422000000    -6.178000000
H    -8.658000000     2.352000000    -6.260000000
O    -4.138000000    -0.060000000    -8.523000000
H    -3.311000000    -0.537000000    -8.584000000
H    -4.572000000    -0.431000000    -7.755000000
O    -6.092000000     1.559000000    -3.887000000
H    -6.784000000     1.180000000    -3.345000000
H    -5.331000000     1.001000000    -3.729000000
O    -7.130000000    -2.660000000     1.877000000
H    -7.166000000    -3.590000000     2.103000000
H    -7.845000000    -2.265000000     2.376000000
O    -7.745000000     0.270000000     3.570000000
H    -7.166000000    -0.095000000     2.901000000
H    -8.110000000    -0.495000000     4.014000000
O    -6.940000000    -0.818000000    -0.068000000
H    -6.033000000    -0.561000000    -0.231000000
H    -6.874000000    -1.551000000     0.545000000
O    -5.239000000    -0.621000000    -5.708000000
H    -4.746000000    -0.510000000    -4.895000000
H    -6.027000000    -1.098000000    -5.447000000
O    -5.712000000    -4.133000000    -4.052000000
H    -5.759000000    -4.216000000    -3.099000000
H    -6.118000000    -3.287000000    -4.239000000
O    -8.669000000     1.488000000    -0.829000000
H    -9.422000000     1.079000000    -0.403000000
H    -7.935000000     0.907000000    -0.629000000
O    -6.738000000    -4.920000000    -1.481000000
H    -6.402000000    -5.806000000    -1.343000000
H    -7.242000000    -4.729000000    -0.690000000
O    -7.964000000    -1.983000000    -5.449000000
H    -8.847000000    -2.328000000    -5.321000000
H    -7.690000000    -1.696000000    -4.578000000
O   -10.553000000     2.820000000    -2.581000000
H    -9.696000000     2.464000000    -2.346000000
H   -11.077000000     2.052000000    -2.808000000
O    -5.862000000     6.200000000    -4.157000000
H    -6.222000000     5.972000000    -5.014000000
H    -5.741000000     5.359000000    -3.717000000
O    -6.663000000    -1.711000000    -3.106000000
H    -7.379000000    -1.447000000    -2.528000000
H    -5.870000000    -1.546000000    -2.597000000
O    -9.303000000    -1.568000000    -2.225000000
H    -9.994000000    -0.913000000    -2.125000000
H    -9.626000000    -2.155000000    -2.908000000
O    -5.676000000     3.898000000    -2.587000000
H    -5.915000000     3.091000000    -3.042000000
H    -5.244000000     3.603000000    -1.785000000
O    -5.071000000     2.030000000    -0.065000000
H    -5.227000000     1.204000000    -0.523000000
H    -4.177000000     1.953000000     0.269000000
O    -7.522000000     3.372000000     0.957000000
H    -8.181000000     2.884000000     0.463000000
H    -6.687000000     2.997000000     0.679000000
O    -4.747000000     2.151000000    -6.509000000
H    -4.986000000     2.095000000    -5.584000000
H    -4.561000000     1.247000000    -6.764000000
