215
-1461.02995
C    -2.324000000     3.645000000     2.616000000
H    -1.876000000     4.414000000     1.992000000
C    -1.537000000     2.640000000     3.280000000
C    -2.206000000     1.663000000     4.144000000
H    -1.655000000     0.867000000     4.639000000
C    -0.063000000     2.566000000     3.112000000
O     0.389000000     3.870000000     2.742000000
H     0.061000000     1.841000000     2.294000000
O     0.580000000     2.141000000     4.283000000
C     1.614000000     1.253000000     4.119000000
C     1.314000000    -0.088000000     4.306000000
H     0.402000000    -0.458000000     4.767000000
C     2.239000000    -1.063000000     3.953000000
O     1.914000000    -2.384000000     4.104000000
C     3.458000000    -0.757000000     3.352000000
C     4.486000000    -1.780000000     2.931000000
H     5.516000000    -1.443000000     2.803000000
C     4.117000000    -2.317000000     1.488000000
C     4.692000000    -1.790000000     0.388000000
H     5.476000000    -1.057000000     0.561000000
H     4.561000000    -2.623000000     3.621000000
C     3.781000000     0.576000000     3.185000000
H     4.697000000     0.919000000     2.710000000
C     2.809000000     1.536000000     3.504000000
C     3.194000000     2.989000000     3.237000000
H     4.274000000     3.147000000     3.256000000
H     2.766000000     3.614000000     4.023000000
C     2.663000000     3.454000000     1.874000000
C     3.576000000     3.632000000     0.838000000
H     4.603000000     3.330000000     1.027000000
C     1.324000000     3.934000000     1.732000000
C     0.918000000     4.376000000     0.478000000
H    -0.086000000     4.771000000     0.338000000
C     1.733000000     4.260000000    -0.598000000
O     1.178000000     4.538000000    -1.766000000
C     0.629000000     3.410000000    -2.519000000
C    -0.678000000     3.744000000    -3.239000000
C    -1.135000000     3.039000000    -4.351000000
H    -0.528000000     2.316000000    -4.889000000
C    -1.547000000     4.663000000    -2.688000000
H    -1.260000000     5.257000000    -1.824000000
O     1.627000000     3.062000000    -3.502000000
H     0.442000000     2.497000000    -1.934000000
C     3.071000000     3.896000000    -0.459000000
C     3.964000000     3.679000000    -1.730000000
H     5.048000000     3.721000000    -1.597000000
H     3.673000000     4.443000000    -2.453000000
C     3.653000000     2.258000000    -2.359000000
C     4.489000000     1.162000000    -2.073000000
H     5.350000000     1.336000000    -1.433000000
C     2.528000000     2.026000000    -3.238000000
C     2.321000000     0.740000000    -3.813000000
H     1.488000000     0.543000000    -4.482000000
C     3.071000000    -0.329000000    -3.393000000
O     2.696000000    -1.567000000    -3.909000000
C     2.045000000    -2.388000000    -2.933000000
C     0.871000000    -3.054000000    -3.539000000
C    -0.117000000    -2.313000000    -4.213000000
H    -0.055000000    -1.228000000    -4.180000000
C     0.677000000    -4.436000000    -3.517000000
H     1.482000000    -5.106000000    -3.225000000
O     3.000000000    -3.359000000    -2.365000000
H     1.556000000    -1.699000000    -2.228000000
C     4.155000000    -0.137000000    -2.545000000
C     5.000000000    -1.383000000    -2.117000000
H     5.958000000    -0.954000000    -1.815000000
H     5.366000000    -2.050000000    -2.901000000
C     4.335000000    -2.065000000    -0.942000000
C     3.468000000    -3.110000000    -1.127000000
C     3.001000000    -3.838000000    -0.037000000
H     2.288000000    -4.654000000    -0.114000000
C     3.138000000    -3.335000000     1.230000000
O     2.404000000    -3.892000000     2.214000000
C     1.425000000    -3.039000000     2.838000000
H     1.088000000    -2.310000000     2.086000000
C     0.088000000    -3.714000000     2.994000000
C    -0.740000000    -3.381000000     4.051000000
H    -0.423000000    -2.716000000     4.850000000
C    -0.388000000    -4.484000000     1.987000000
H     0.184000000    -4.693000000     1.087000000
C    -1.624000000    -5.153000000     2.077000000
O    -2.143000000    -5.911000000     1.037000000
C    -2.439000000    -4.941000000     3.136000000
H    -3.408000000    -5.428000000     3.204000000
C    -2.050000000    -3.975000000     4.113000000
O    -2.862000000    -3.716000000     5.183000000
C    -2.983000000    -2.563000000     5.809000000
C    -3.543000000    -1.468000000     5.125000000
H    -3.996000000    -1.514000000     4.138000000
C    -2.416000000    -2.390000000     7.003000000
H    -1.937000000    -3.255000000     7.454000000
C    -2.575000000    -1.209000000     7.625000000
H    -2.183000000    -1.081000000     8.631000000
C    -3.272000000    -0.092000000     7.021000000
H    -3.337000000     0.882000000     7.500000000
C    -3.806000000    -0.232000000     5.763000000
O    -4.306000000     0.857000000     5.070000000
C    -3.613000000     1.754000000     4.277000000
C    -4.404000000     2.703000000     3.610000000
H    -5.467000000     2.779000000     3.826000000
C    -3.739000000     3.634000000     2.740000000
O    -4.511000000     4.571000000     2.088000000
C    -4.045000000     5.478000000     1.129000000
C    -4.104000000     5.135000000    -0.268000000
H    -4.393000000     4.131000000    -0.568000000
C    -3.579000000     6.735000000     1.500000000
H    -3.593000000     6.920000000     2.571000000
C    -3.179000000     7.702000000     0.587000000
H    -2.857000000     8.715000000     0.812000000
C    -3.233000000     7.394000000    -0.744000000
H    -2.834000000     8.100000000    -1.468000000
C    -3.681000000     6.149000000    -1.180000000
O    -3.603000000     5.850000000    -2.570000000
C    -2.834000000     4.858000000    -3.132000000
C    -3.303000000     4.138000000    -4.229000000
H    -4.261000000     4.336000000    -4.704000000
C    -2.440000000     3.277000000    -4.883000000
O    -2.897000000     2.659000000    -6.068000000
C    -2.497000000     1.360000000    -6.308000000
C    -2.591000000     0.319000000    -5.382000000
H    -3.096000000     0.502000000    -4.437000000
C    -1.876000000     1.171000000    -7.565000000
H    -1.868000000     1.994000000    -8.275000000
C    -1.324000000    -0.110000000    -7.796000000
H    -0.828000000    -0.316000000    -8.742000000
C    -1.496000000    -1.105000000    -6.910000000
H    -1.078000000    -2.045000000    -7.263000000
C    -2.193000000    -0.972000000    -5.723000000
O    -2.458000000    -2.031000000    -4.897000000
C    -1.383000000    -2.845000000    -4.572000000
C    -1.624000000    -4.150000000    -4.298000000
H    -2.642000000    -4.522000000    -4.371000000
C    -0.567000000    -4.984000000    -3.902000000
O    -0.787000000    -6.271000000    -3.479000000
C    -0.703000000    -6.709000000    -2.223000000
C     0.314000000    -7.673000000    -1.875000000
H     0.929000000    -8.110000000    -2.658000000
C     0.470000000    -8.045000000    -0.528000000
H     1.077000000    -8.905000000    -0.258000000
C    -0.347000000    -7.453000000     0.439000000
H    -0.137000000    -7.604000000     1.495000000
C    -1.342000000    -6.548000000     0.078000000
C    -1.549000000    -6.172000000    -1.241000000
H    -2.278000000    -5.421000000    -1.533000000
C    -1.458000000    -0.621000000     1.011000000
H    -1.849000000    -0.832000000     2.003000000
C    -0.137000000    -0.280000000     0.728000000
H     0.504000000    -0.226000000     1.604000000
C     0.301000000     0.093000000    -0.516000000
H     1.373000000     0.290000000    -0.656000000
C    -0.553000000     0.133000000    -1.580000000
H    -0.256000000     0.441000000    -2.579000000
C    -1.874000000    -0.330000000    -1.323000000
H    -2.448000000    -0.447000000    -2.239000000
C    -2.374000000    -0.664000000    -0.064000000
C    -3.827000000    -1.114000000     0.026000000
O    -4.467000000    -1.203000000    -1.009000000
O    -4.260000000    -1.516000000     1.079000000
O    -6.827000000     2.645000000    -0.222000000
H    -7.603000000     2.990000000     0.220000000
H    -6.450000000     2.026000000     0.405000000
O    -6.992000000    -2.492000000     4.989000000
H    -7.649000000    -2.184000000     4.365000000
H    -6.301000000    -2.868000000     4.444000000
O    -4.512000000     1.206000000    -2.380000000
H    -4.270000000     0.504000000    -1.776000000
H    -5.164000000     0.810000000    -2.958000000
O    -4.738000000    -4.084000000    -0.905000000
H    -4.762000000    -3.134000000    -0.793000000
H    -4.224000000    -4.401000000    -0.162000000
O    -7.644000000    -0.461000000    -1.743000000
H    -7.090000000     0.076000000    -1.177000000
H    -7.317000000    -1.353000000    -1.623000000
O    -6.463000000    -6.502000000    -0.230000000
H    -5.989000000    -5.951000000    -0.852000000
H    -7.035000000    -7.042000000    -0.776000000
O    -8.726000000    -3.586000000    -1.295000000
H    -8.270000000    -3.588000000    -2.136000000
H    -9.550000000    -4.042000000    -1.468000000
O    -5.459000000    -3.394000000     2.664000000
H    -6.140000000    -3.687000000     2.059000000
H    -4.870000000    -2.867000000     2.124000000
O    -5.124000000    -2.275000000    -3.488000000
H    -4.435000000    -2.218000000    -2.826000000
H    -5.303000000    -1.365000000    -3.725000000
O    -5.514000000    -5.723000000     5.278000000
H    -5.050000000    -5.600000000     6.106000000
H    -5.630000000    -4.837000000     4.933000000
O    -6.146000000     0.181000000    -4.036000000
H    -6.650000000     0.118000000    -3.225000000
H    -6.776000000     0.494000000    -4.685000000
O    -8.213000000    -0.941000000     3.134000000
H    -7.507000000    -0.442000000     2.722000000
H    -8.620000000    -0.323000000     3.742000000
O    -9.465000000     1.706000000    -2.062000000
H    -8.904000000     2.324000000    -1.592000000
H    -8.907000000     0.944000000    -2.215000000
O    -4.893000000    -5.389000000    -3.307000000
H    -5.003000000    -4.611000000    -3.854000000
H    -4.772000000    -5.044000000    -2.422000000
O   -10.277000000     0.452000000     0.675000000
H   -10.794000000     0.053000000    -0.025000000
H    -9.381000000     0.161000000     0.507000000
O    -5.959000000     0.421000000     1.909000000
H    -5.443000000    -0.346000000     1.661000000
H    -5.314000000     1.048000000     2.236000000
O    -7.787000000    -4.599000000     1.252000000
H    -7.467000000    -5.439000000     0.923000000
H    -8.344000000    -4.263000000     0.550000000
O    -7.286000000    -3.800000000    -3.668000000
H    -6.669000000    -3.068000000    -3.696000000
H    -6.735000000    -4.580000000    -3.734000000
O    -6.137000000     3.593000000    -2.624000000
H    -6.600000000     3.274000000    -1.850000000
H    -5.358000000     3.040000000    -2.682000000
