215
-1445.96731
C    -2.141000000     3.927000000     2.673000000
H    -1.915000000     4.383000000     1.712000000
C    -1.148000000     3.251000000     3.418000000
C    -1.404000000     2.673000000     4.642000000
H    -0.571000000     2.261000000     5.207000000
C     0.290000000     3.241000000     2.847000000
O     0.548000000     4.437000000     2.030000000
H     0.234000000     2.385000000     2.159000000
O     1.172000000     2.997000000     3.810000000
C     2.231000000     2.152000000     3.653000000
C     2.038000000     0.872000000     4.086000000
H     1.117000000     0.691000000     4.635000000
C     2.840000000    -0.145000000     3.708000000
O     2.528000000    -1.414000000     4.104000000
C     3.963000000     0.078000000     2.908000000
C     4.938000000    -0.987000000     2.381000000
H     5.855000000    -0.436000000     2.160000000
C     4.438000000    -1.762000000     1.182000000
C     4.959000000    -1.438000000    -0.062000000
H     5.732000000    -0.674000000    -0.046000000
H     5.248000000    -1.670000000     3.175000000
C     4.153000000     1.414000000     2.405000000
H     4.974000000     1.599000000     1.717000000
C     3.288000000     2.446000000     2.764000000
C     3.370000000     3.860000000     2.190000000
H     4.417000000     4.043000000     1.941000000
H     2.947000000     4.579000000     2.894000000
C     2.583000000     3.945000000     0.874000000
C     3.207000000     3.564000000    -0.307000000
H     4.243000000     3.233000000    -0.308000000
C     1.223000000     4.302000000     0.850000000
C     0.512000000     4.258000000    -0.340000000
H    -0.505000000     4.642000000    -0.341000000
C     1.093000000     3.832000000    -1.540000000
O     0.399000000     3.731000000    -2.685000000
C     0.195000000     2.374000000    -3.132000000
C    -1.268000000     2.208000000    -3.434000000
C    -1.758000000     1.525000000    -4.569000000
H    -1.020000000     1.266000000    -5.324000000
C    -2.242000000     2.668000000    -2.465000000
H    -1.863000000     3.082000000    -1.534000000
O     1.051000000     2.086000000    -4.202000000
H     0.400000000     1.693000000    -2.293000000
C     2.427000000     3.439000000    -1.522000000
C     3.228000000     3.178000000    -2.763000000
H     4.215000000     3.633000000    -2.657000000
H     2.860000000     3.828000000    -3.559000000
C     3.210000000     1.724000000    -3.193000000
C     4.193000000     0.795000000    -2.765000000
H     4.977000000     1.135000000    -2.093000000
C     2.120000000     1.281000000    -3.945000000
C     2.166000000     0.009000000    -4.475000000
H     1.251000000    -0.251000000    -5.001000000
C     3.138000000    -0.877000000    -4.119000000
O     2.799000000    -2.222000000    -4.253000000
C     1.944000000    -2.742000000    -3.191000000
C     0.723000000    -3.508000000    -3.610000000
C     0.201000000    -3.351000000    -4.917000000
H     0.813000000    -2.984000000    -5.737000000
C    -0.099000000    -4.078000000    -2.612000000
H     0.218000000    -4.009000000    -1.574000000
O     2.744000000    -3.500000000    -2.225000000
H     1.422000000    -1.929000000    -2.665000000
C     4.170000000    -0.510000000    -3.221000000
C     5.028000000    -1.478000000    -2.514000000
H     6.049000000    -1.114000000    -2.384000000
H     5.131000000    -2.290000000    -3.237000000
C     4.385000000    -1.931000000    -1.213000000
C     3.332000000    -2.850000000    -1.155000000
C     2.847000000    -3.182000000     0.152000000
H     2.104000000    -3.976000000     0.153000000
C     3.358000000    -2.585000000     1.328000000
O     2.810000000    -3.002000000     2.468000000
C     1.836000000    -2.104000000     3.117000000
H     1.402000000    -1.473000000     2.327000000
C     0.623000000    -2.909000000     3.717000000
C     0.073000000    -2.510000000     4.949000000
H     0.458000000    -1.699000000     5.561000000
C    -0.044000000    -3.949000000     3.032000000
H     0.356000000    -4.280000000     2.077000000
C    -1.308000000    -4.342000000     3.440000000
O    -2.065000000    -5.250000000     2.752000000
C    -1.827000000    -3.898000000     4.629000000
H    -2.752000000    -4.267000000     5.063000000
C    -1.134000000    -2.996000000     5.394000000
O    -1.666000000    -2.566000000     6.578000000
C    -1.544000000    -1.272000000     7.039000000
C    -2.354000000    -0.280000000     6.441000000
H    -3.051000000    -0.609000000     5.675000000
C    -0.670000000    -0.814000000     7.922000000
H    -0.054000000    -1.533000000     8.456000000
C    -0.586000000     0.456000000     8.376000000
H     0.196000000     0.627000000     9.111000000
C    -1.425000000     1.439000000     7.832000000
H    -1.340000000     2.482000000     8.124000000
C    -2.278000000     1.076000000     6.824000000
O    -3.050000000     2.076000000     6.317000000
C    -2.715000000     2.705000000     5.156000000
C    -3.792000000     3.260000000     4.426000000
H    -4.810000000     3.300000000     4.805000000
C    -3.436000000     3.933000000     3.247000000
O    -4.458000000     4.617000000     2.617000000
C    -4.445000000     4.818000000     1.236000000
C    -4.620000000     3.730000000     0.396000000
H    -4.813000000     2.704000000     0.699000000
C    -4.164000000     6.065000000     0.734000000
H    -3.945000000     6.863000000     1.439000000
C    -4.112000000     6.372000000    -0.632000000
H    -3.737000000     7.334000000    -0.974000000
C    -4.247000000     5.305000000    -1.536000000
H    -4.145000000     5.422000000    -2.612000000
C    -4.551000000     4.033000000    -0.983000000
O    -4.674000000     2.961000000    -1.841000000
C    -3.613000000     2.522000000    -2.675000000
C    -4.050000000     1.976000000    -3.893000000
H    -5.107000000     1.950000000    -4.147000000
C    -3.146000000     1.457000000    -4.783000000
O    -3.682000000     0.780000000    -5.902000000
C    -2.962000000    -0.201000000    -6.563000000
C    -2.672000000    -1.476000000    -6.019000000
H    -3.061000000    -1.739000000    -5.039000000
C    -2.453000000     0.200000000    -7.775000000
H    -2.774000000     1.176000000    -8.130000000
C    -1.638000000    -0.644000000    -8.485000000
H    -1.187000000    -0.298000000    -9.412000000
C    -1.473000000    -1.949000000    -8.070000000
H    -0.898000000    -2.593000000    -8.730000000
C    -1.972000000    -2.369000000    -6.826000000
O    -1.758000000    -3.651000000    -6.364000000
C    -1.121000000    -3.743000000    -5.160000000
C    -1.930000000    -4.344000000    -4.139000000
H    -2.982000000    -4.552000000    -4.318000000
C    -1.353000000    -4.542000000    -2.926000000
O    -2.125000000    -5.081000000    -2.013000000
C    -1.697000000    -5.659000000    -0.843000000
C    -0.991000000    -6.885000000    -0.862000000
H    -0.769000000    -7.294000000    -1.844000000
C    -0.777000000    -7.525000000     0.337000000
H    -0.424000000    -8.552000000     0.376000000
C    -1.220000000    -6.980000000     1.522000000
H    -0.958000000    -7.580000000     2.389000000
C    -1.814000000    -5.794000000     1.536000000
C    -2.079000000    -5.099000000     0.349000000
H    -2.508000000    -4.101000000     0.384000000
C    -1.324000000    -0.080000000     0.966000000
H    -1.561000000     0.048000000     2.019000000
C     0.040000000    -0.040000000     0.616000000
H     0.775000000     0.261000000     1.358000000
C     0.344000000    -0.357000000    -0.685000000
H     1.341000000    -0.367000000    -1.054000000
C    -0.607000000    -0.685000000    -1.602000000
H    -0.312000000    -0.912000000    -2.623000000
C    -1.980000000    -0.649000000    -1.306000000
H    -2.781000000    -0.858000000    -2.011000000
C    -2.396000000    -0.415000000     0.034000000
C    -3.881000000    -0.670000000     0.416000000
O    -4.752000000    -0.943000000    -0.386000000
O    -4.191000000    -0.637000000     1.555000000
O    -7.093000000     1.555000000     5.735000000
H    -7.278000000     0.643000000     5.961000000
H    -6.764000000     1.516000000     4.836000000
O    -7.301000000     2.864000000     1.816000000
H    -7.405000000     2.538000000     0.922000000
H    -6.667000000     2.269000000     2.215000000
O    -6.292000000    -4.434000000     0.999000000
H    -7.034000000    -4.045000000     0.536000000
H    -5.832000000    -3.688000000     1.383000000
O    -7.112000000    -6.897000000    -0.074000000
H    -7.613000000    -6.648000000    -0.850000000
H    -6.509000000    -6.167000000     0.067000000
O    -6.277000000     0.254000000    -2.467000000
H    -6.773000000     1.003000000    -2.137000000
H    -5.826000000    -0.093000000    -1.698000000
O    -4.600000000    -3.011000000     2.723000000
H    -3.880000000    -2.882000000     3.341000000
H    -4.631000000    -2.198000000     2.219000000
O    -7.339000000    -1.859000000    -0.112000000
H    -7.871000000    -1.500000000     0.598000000
H    -6.522000000    -1.361000000    -0.074000000
O    -4.851000000    -6.344000000     2.324000000
H    -3.982000000    -5.942000000     2.296000000
H    -5.442000000    -5.657000000     2.015000000
O    -5.580000000    -5.087000000    -3.902000000
H    -5.236000000    -4.277000000    -3.524000000
H    -5.680000000    -5.676000000    -3.154000000
O    -6.519000000    -1.305000000    -4.530000000
H    -6.948000000    -1.894000000    -3.909000000
H    -6.171000000    -0.598000000    -3.987000000
O    -8.207000000    -1.231000000     4.152000000
H    -7.554000000    -1.857000000     4.464000000
H    -8.548000000    -1.621000000     3.347000000
O    -9.392000000    -1.800000000     1.680000000
H   -10.124000000    -1.289000000     2.024000000
H    -9.720000000    -2.165000000     0.858000000
O    -5.215000000    -3.110000000    -6.081000000
H    -5.313000000    -4.055000000    -5.967000000
H    -5.761000000    -2.728000000    -5.394000000
O    -4.470000000    -2.943000000    -2.214000000
H    -3.596000000    -3.116000000    -1.865000000
H    -4.796000000    -2.211000000    -1.691000000
O    -5.921000000     0.929000000     3.065000000
H    -6.633000000     0.290000000     3.049000000
H    -5.148000000     0.435000000     2.792000000
O    -8.014000000    -3.203000000    -2.462000000
H    -8.547000000    -2.518000000    -2.866000000
H    -7.895000000    -2.912000000    -1.558000000
O   -11.296000000    -0.856000000    -1.270000000
H   -10.421000000    -0.919000000    -1.653000000
H   -11.194000000    -0.246000000    -0.539000000
O    -7.754000000     2.487000000    -1.028000000
H    -8.498000000     3.074000000    -0.891000000
H    -7.134000000     3.003000000    -1.544000000
O    -6.436000000    -3.255000000     4.731000000
H    -6.005000000    -3.563000000     5.529000000
H    -5.736000000    -3.222000000     4.078000000
