215
-1435.87945
C    -1.994000000     3.983000000     2.505000000
H    -1.560000000     4.622000000     1.740000000
C    -1.153000000     3.232000000     3.318000000
C    -1.696000000     2.393000000     4.243000000
H    -1.021000000     1.700000000     4.739000000
C     0.288000000     3.030000000     2.922000000
O     0.849000000     4.289000000     2.471000000
H     0.294000000     2.317000000     2.084000000
O     1.226000000     2.567000000     4.040000000
C     2.181000000     1.653000000     3.735000000
C     1.884000000     0.321000000     4.057000000
H     1.159000000     0.026000000     4.811000000
C     2.780000000    -0.671000000     3.814000000
O     2.397000000    -1.916000000     4.126000000
C     3.984000000    -0.367000000     3.148000000
C     4.831000000    -1.522000000     2.656000000
H     5.825000000    -1.138000000     2.418000000
C     4.391000000    -2.125000000     1.324000000
C     5.005000000    -1.729000000     0.075000000
H     5.783000000    -0.975000000     0.161000000
H     4.949000000    -2.323000000     3.388000000
C     4.166000000     0.940000000     2.654000000
H     5.031000000     1.124000000     2.022000000
C     3.326000000     1.997000000     2.998000000
C     3.563000000     3.377000000     2.521000000
H     4.626000000     3.500000000     2.305000000
H     3.443000000     4.141000000     3.292000000
C     2.898000000     3.688000000     1.239000000
C     3.539000000     3.403000000     0.062000000
H     4.548000000     3.003000000     0.119000000
C     1.585000000     4.208000000     1.235000000
C     0.998000000     4.507000000     0.013000000
H    -0.063000000     4.741000000    -0.037000000
C     1.567000000     4.014000000    -1.126000000
O     0.842000000     4.148000000    -2.189000000
C     0.367000000     3.029000000    -2.969000000
C    -1.071000000     3.206000000    -3.305000000
C    -1.641000000     2.140000000    -3.966000000
H    -0.964000000     1.320000000    -4.194000000
C    -1.808000000     4.364000000    -2.946000000
H    -1.425000000     5.177000000    -2.336000000
O     1.249000000     2.614000000    -4.097000000
H     0.302000000     2.194000000    -2.256000000
C     2.896000000     3.590000000    -1.143000000
C     3.674000000     3.341000000    -2.478000000
H     4.750000000     3.384000000    -2.295000000
H     3.376000000     4.117000000    -3.186000000
C     3.350000000     1.958000000    -3.072000000
C     4.184000000     0.872000000    -2.597000000
H     5.085000000     1.052000000    -2.017000000
C     2.186000000     1.607000000    -3.756000000
C     1.957000000     0.326000000    -4.214000000
H     1.135000000     0.175000000    -4.909000000
C     2.710000000    -0.772000000    -3.699000000
O     2.370000000    -2.025000000    -3.946000000
C     1.742000000    -2.816000000    -2.881000000
C     0.642000000    -3.610000000    -3.538000000
C    -0.008000000    -3.143000000    -4.664000000
H     0.276000000    -2.257000000    -5.226000000
C     0.047000000    -4.713000000    -2.909000000
H     0.554000000    -5.094000000    -2.026000000
O     2.737000000    -3.602000000    -2.205000000
H     1.364000000    -2.084000000    -2.152000000
C     3.869000000    -0.480000000    -2.930000000
C     4.868000000    -1.546000000    -2.429000000
H     5.844000000    -1.073000000    -2.301000000
H     5.008000000    -2.362000000    -3.141000000
C     4.412000000    -2.127000000    -1.137000000
C     3.360000000    -3.086000000    -1.086000000
C     2.825000000    -3.500000000     0.142000000
H     1.970000000    -4.171000000     0.126000000
C     3.341000000    -3.101000000     1.306000000
O     2.675000000    -3.495000000     2.445000000
C     1.720000000    -2.686000000     3.105000000
H     1.297000000    -1.983000000     2.373000000
C     0.338000000    -3.383000000     3.526000000
C    -0.329000000    -2.985000000     4.669000000
H     0.000000000    -2.157000000     5.291000000
C    -0.282000000    -4.349000000     2.677000000
H     0.292000000    -4.672000000     1.813000000
C    -1.603000000    -4.843000000     3.058000000
O    -2.305000000    -5.565000000     2.167000000
C    -2.215000000    -4.367000000     4.216000000
H    -3.224000000    -4.720000000     4.414000000
C    -1.590000000    -3.432000000     4.964000000
O    -2.161000000    -3.033000000     6.144000000
C    -2.276000000    -1.709000000     6.448000000
C    -2.875000000    -0.766000000     5.537000000
H    -3.131000000    -1.049000000     4.519000000
C    -1.956000000    -1.342000000     7.721000000
H    -1.473000000    -1.994000000     8.445000000
C    -2.283000000    -0.104000000     8.217000000
H    -2.215000000     0.107000000     9.281000000
C    -2.775000000     0.871000000     7.386000000
H    -3.006000000     1.809000000     7.884000000
C    -3.055000000     0.549000000     6.035000000
O    -3.677000000     1.461000000     5.250000000
C    -3.059000000     2.334000000     4.376000000
C    -3.914000000     3.074000000     3.554000000
H    -4.979000000     2.877000000     3.644000000
C    -3.393000000     3.880000000     2.539000000
O    -4.170000000     4.670000000     1.770000000
C    -3.928000000     5.546000000     0.744000000
C    -4.125000000     5.065000000    -0.542000000
H    -4.305000000     4.029000000    -0.819000000
C    -3.611000000     6.889000000     0.973000000
H    -3.296000000     7.199000000     1.966000000
C    -3.285000000     7.681000000    -0.154000000
H    -2.847000000     8.671000000    -0.062000000
C    -3.591000000     7.204000000    -1.437000000
H    -3.552000000     7.783000000    -2.356000000
C    -3.943000000     5.894000000    -1.616000000
O    -4.018000000     5.338000000    -2.890000000
C    -3.155000000     4.392000000    -3.363000000
C    -3.649000000     3.374000000    -4.133000000
H    -4.711000000     3.309000000    -4.356000000
C    -2.940000000     2.238000000    -4.460000000
O    -3.597000000     1.211000000    -5.123000000
C    -2.889000000     0.341000000    -5.916000000
C    -2.697000000    -0.942000000    -5.495000000
H    -3.246000000    -1.327000000    -4.639000000
C    -2.221000000     0.855000000    -7.033000000
H    -2.257000000     1.931000000    -7.188000000
C    -1.381000000     0.060000000    -7.754000000
H    -0.922000000     0.450000000    -8.659000000
C    -1.289000000    -1.284000000    -7.402000000
H    -0.776000000    -2.082000000    -7.933000000
C    -1.996000000    -1.757000000    -6.329000000
O    -1.952000000    -3.141000000    -6.107000000
C    -1.244000000    -3.773000000    -5.069000000
C    -1.824000000    -4.877000000    -4.383000000
H    -2.778000000    -5.271000000    -4.723000000
C    -1.150000000    -5.356000000    -3.256000000
O    -1.769000000    -6.443000000    -2.550000000
C    -1.458000000    -6.750000000    -1.238000000
C    -0.847000000    -7.943000000    -0.878000000
H    -0.508000000    -8.620000000    -1.658000000
C    -0.530000000    -8.239000000     0.507000000
H     0.006000000    -9.149000000     0.765000000
C    -1.025000000    -7.471000000     1.517000000
H    -0.856000000    -7.775000000     2.547000000
C    -1.800000000    -6.302000000     1.185000000
C    -1.985000000    -5.939000000    -0.170000000
H    -2.489000000    -5.018000000    -0.449000000
C    -1.776000000    -1.182000000     1.492000000
H    -2.505000000    -1.444000000     2.254000000
C    -0.551000000    -0.524000000     1.758000000
H    -0.246000000    -0.446000000     2.798000000
C     0.299000000    -0.137000000     0.745000000
H     1.288000000     0.293000000     0.992000000
C    -0.110000000    -0.184000000    -0.584000000
H     0.528000000     0.147000000    -1.400000000
C    -1.365000000    -0.703000000    -0.889000000
H    -1.758000000    -0.626000000    -1.899000000
C    -2.180000000    -1.269000000     0.134000000
C    -3.561000000    -1.802000000    -0.288000000
O    -3.936000000    -1.752000000    -1.459000000
O    -4.389000000    -1.981000000     0.624000000
O    -6.465000000     2.884000000     0.287000000
H    -7.309000000     2.789000000     0.728000000
H    -5.934000000     2.163000000     0.627000000
O    -6.641000000    -1.528000000     6.048000000
H    -6.724000000    -2.347000000     5.558000000
H    -6.147000000    -0.951000000     5.465000000
O    -6.473000000     1.223000000    -3.602000000
H    -6.215000000     1.326000000    -4.519000000
H    -5.924000000     0.508000000    -3.278000000
O    -6.480000000    -6.949000000     0.407000000
H    -6.085000000    -6.725000000     1.249000000
H    -6.086000000    -7.790000000     0.174000000
O    -6.825000000    -2.191000000    -0.202000000
H    -5.871000000    -2.112000000    -0.190000000
H    -7.044000000    -2.307000000    -1.127000000
O    -4.969000000    -2.098000000     3.350000000
H    -5.531000000    -1.333000000     3.226000000
H    -4.724000000    -2.361000000     2.462000000
O    -5.534000000    -2.041000000    -3.669000000
H    -4.914000000    -1.955000000    -2.945000000
H    -6.393000000    -2.063000000    -3.247000000
O    -6.857000000     0.067000000     3.625000000
H    -7.208000000     0.037000000     2.735000000
H    -6.965000000     0.979000000     3.894000000
O    -8.143000000    -2.422000000    -2.841000000
H    -8.889000000    -2.136000000    -2.314000000
H    -8.367000000    -3.313000000    -3.108000000
O    -9.976000000    -2.024000000     2.150000000
H    -9.571000000    -1.255000000     1.749000000
H    -9.248000000    -2.627000000     2.298000000
O    -5.008000000    -4.517000000    -4.807000000
H    -5.272000000    -3.770000000    -4.270000000
H    -5.460000000    -5.265000000    -4.417000000
O    -7.985000000    -5.051000000    -0.621000000
H    -7.715000000    -4.262000000    -0.151000000
H    -7.521000000    -5.763000000    -0.180000000
O    -6.654000000    -1.898000000    -6.502000000
H    -6.964000000    -2.767000000    -6.246000000
H    -6.230000000    -1.554000000    -5.716000000
O    -8.553000000     0.292000000     1.203000000
H    -8.905000000     1.094000000     0.816000000
H    -7.782000000     0.090000000     0.673000000
O    -4.354000000    -7.753000000     2.179000000
H    -3.657000000    -7.109000000     2.047000000
H    -4.498000000    -7.759000000     3.125000000
O    -7.371000000    -5.627000000    -3.857000000
H    -7.951000000    -6.371000000    -4.021000000
H    -7.296000000    -5.588000000    -2.904000000
O    -4.803000000     0.930000000     1.155000000
H    -4.483000000     0.149000000     0.703000000
H    -4.744000000     0.710000000     2.085000000
O    -5.992000000    -4.566000000     4.104000000
H    -5.719000000    -4.623000000     5.020000000
H    -5.599000000    -3.753000000     3.787000000
O    -7.639000000    -3.500000000     2.028000000
H    -7.039000000    -3.299000000     1.310000000
H    -7.100000000    -3.435000000     2.816000000
