215
-1449.20534
C     3.110000000    -0.179000000    -3.107000000
H     2.428000000    -1.022000000    -3.033000000
C     4.027000000     0.044000000    -2.122000000
C     4.823000000     1.163000000    -2.221000000
H     5.622000000     1.248000000    -1.489000000
C     4.054000000    -0.845000000    -0.923000000
O     4.067000000    -2.204000000    -1.379000000
H     3.126000000    -0.541000000    -0.418000000
O     5.211000000    -0.552000000    -0.149000000
C     4.901000000    -0.496000000     1.215000000
C     4.608000000     0.774000000     1.738000000
H     4.765000000     1.614000000     1.066000000
C     3.866000000     0.907000000     2.932000000
O     3.171000000     2.060000000     3.233000000
C     3.406000000    -0.234000000     3.613000000
C     2.549000000    -0.082000000     4.803000000
H     2.779000000    -0.914000000     5.472000000
C     1.035000000    -0.096000000     4.634000000
C     0.302000000    -1.268000000     4.788000000
H     0.762000000    -2.209000000     5.079000000
H     2.936000000     0.703000000     5.457000000
C     3.697000000    -1.493000000     3.137000000
H     3.360000000    -2.324000000     3.750000000
C     4.334000000    -1.600000000     1.908000000
C     4.641000000    -2.970000000     1.327000000
H     4.865000000    -3.694000000     2.113000000
H     5.518000000    -2.967000000     0.676000000
C     3.398000000    -3.490000000     0.566000000
C     2.379000000    -4.303000000     1.082000000
H     2.437000000    -4.526000000     2.144000000
C     3.186000000    -3.033000000    -0.765000000
C     2.205000000    -3.511000000    -1.621000000
H     2.180000000    -3.206000000    -2.664000000
C     1.231000000    -4.345000000    -1.086000000
O     0.066000000    -4.663000000    -1.818000000
C    -1.137000000    -3.842000000    -1.575000000
C    -1.840000000    -3.428000000    -2.882000000
C    -3.153000000    -2.941000000    -2.836000000
H    -3.712000000    -2.803000000    -1.914000000
C    -1.200000000    -3.451000000    -4.101000000
H    -0.196000000    -3.854000000    -4.211000000
O    -2.005000000    -4.585000000    -0.744000000
H    -0.984000000    -2.822000000    -1.193000000
C     1.318000000    -4.718000000     0.287000000
C     0.218000000    -5.517000000     0.901000000
H     0.566000000    -6.073000000     1.774000000
H    -0.164000000    -6.227000000     0.164000000
C    -0.949000000    -4.612000000     1.369000000
C    -0.972000000    -4.171000000     2.653000000
H    -0.097000000    -4.415000000     3.249000000
C    -2.008000000    -4.332000000     0.556000000
C    -3.035000000    -3.510000000     1.048000000
H    -3.824000000    -3.220000000     0.360000000
C    -2.967000000    -2.877000000     2.253000000
O    -3.889000000    -1.883000000     2.491000000
C    -3.451000000    -0.519000000     2.488000000
C    -4.507000000     0.417000000     1.894000000
C    -5.509000000    -0.060000000     1.050000000
H    -5.618000000    -1.108000000     0.781000000
C    -4.462000000     1.789000000     2.072000000
H    -3.640000000     2.117000000     2.704000000
O    -3.035000000    -0.079000000     3.801000000
H    -2.527000000    -0.483000000     1.893000000
C    -1.997000000    -3.283000000     3.184000000
C    -1.766000000    -2.606000000     4.560000000
H    -1.078000000    -3.217000000     5.148000000
H    -2.673000000    -2.561000000     5.166000000
C    -1.041000000    -1.290000000     4.428000000
C    -1.727000000    -0.049000000     4.195000000
C    -1.009000000     1.131000000     4.256000000
H    -1.607000000     2.036000000     4.182000000
C     0.359000000     1.080000000     4.328000000
O     0.938000000     2.307000000     3.929000000
C     1.857000000     2.321000000     2.785000000
H     1.542000000     1.561000000     2.055000000
C     1.716000000     3.662000000     2.099000000
C     2.835000000     4.299000000     1.650000000
H     3.842000000     3.892000000     1.697000000
C     0.394000000     4.145000000     1.960000000
H    -0.477000000     3.693000000     2.430000000
C     0.212000000     5.392000000     1.386000000
O    -1.023000000     5.993000000     1.216000000
C     1.342000000     6.132000000     0.950000000
H     1.205000000     7.055000000     0.392000000
C     2.637000000     5.509000000     1.017000000
O     3.748000000     6.132000000     0.403000000
C     4.803000000     5.451000000    -0.201000000
C     4.555000000     4.674000000    -1.312000000
H     3.537000000     4.490000000    -1.644000000
C     6.115000000     5.746000000     0.184000000
H     6.370000000     6.431000000     0.989000000
C     7.122000000     5.157000000    -0.562000000
H     8.148000000     5.318000000    -0.239000000
C     6.910000000     4.293000000    -1.634000000
H     7.751000000     3.797000000    -2.113000000
C     5.589000000     4.057000000    -2.022000000
O     5.319000000     3.326000000    -3.149000000
C     4.619000000     2.101000000    -3.198000000
C     3.659000000     1.894000000    -4.135000000
H     3.431000000     2.703000000    -4.824000000
C     2.864000000     0.742000000    -4.113000000
O     1.804000000     0.653000000    -4.973000000
C     1.566000000    -0.500000000    -5.711000000
C     0.288000000    -1.129000000    -5.757000000
H    -0.581000000    -0.640000000    -5.324000000
C     2.683000000    -1.113000000    -6.353000000
H     3.646000000    -0.666000000    -6.119000000
C     2.531000000    -2.297000000    -7.071000000
H     3.347000000    -2.877000000    -7.496000000
C     1.236000000    -2.883000000    -7.183000000
H     1.130000000    -3.878000000    -7.608000000
C     0.166000000    -2.333000000    -6.468000000
O    -1.102000000    -2.960000000    -6.416000000
C    -1.825000000    -3.036000000    -5.262000000
C    -3.109000000    -2.539000000    -5.249000000
H    -3.460000000    -2.203000000    -6.221000000
C    -3.798000000    -2.487000000    -4.027000000
O    -5.076000000    -2.105000000    -4.044000000
C    -5.979000000    -2.118000000    -2.996000000
C    -6.101000000    -0.981000000    -2.196000000
H    -5.397000000    -0.162000000    -2.324000000
C    -6.879000000    -3.136000000    -2.938000000
H    -6.828000000    -3.923000000    -3.686000000
C    -7.842000000    -3.095000000    -1.943000000
H    -8.482000000    -3.949000000    -1.737000000
C    -7.908000000    -2.020000000    -1.087000000
H    -8.609000000    -2.008000000    -0.256000000
C    -7.165000000    -0.861000000    -1.349000000
O    -7.234000000     0.292000000    -0.510000000
C    -6.413000000     0.737000000     0.435000000
C    -6.287000000     2.134000000     0.576000000
H    -6.998000000     2.789000000     0.078000000
C    -5.349000000     2.655000000     1.421000000
O    -5.363000000     4.028000000     1.694000000
C    -4.303000000     4.749000000     2.248000000
C    -4.248000000     5.005000000     3.603000000
H    -5.083000000     4.796000000     4.267000000
C    -3.145000000     5.688000000     4.178000000
H    -3.182000000     5.918000000     5.240000000
C    -2.050000000     5.968000000     3.369000000
H    -1.115000000     6.362000000     3.759000000
C    -2.141000000     5.733000000     1.995000000
C    -3.281000000     5.219000000     1.398000000
H    -3.411000000     5.075000000     0.328000000
C    -0.939000000     0.301000000    -2.169000000
H    -1.079000000     0.154000000    -3.237000000
C    -0.125000000    -0.538000000    -1.378000000
H     0.365000000    -1.428000000    -1.762000000
C    -0.126000000    -0.311000000     0.041000000
H     0.427000000    -1.025000000     0.757000000
C    -0.826000000     0.832000000     0.562000000
H    -0.670000000     0.964000000     1.629000000
C    -1.612000000     1.688000000    -0.282000000
H    -2.107000000     2.572000000     0.110000000
C    -1.662000000     1.371000000    -1.651000000
C    -2.466000000     2.253000000    -2.566000000
O    -3.190000000     3.089000000    -2.004000000
O    -2.287000000     2.236000000    -3.800000000
O     1.937000000     5.993000000    -3.323000000
H     1.419000000     5.204000000    -3.481000000
H     1.406000000     6.705000000    -3.682000000
O    -3.595000000     5.829000000    -6.695000000
H    -3.009000000     6.091000000    -5.985000000
H    -3.012000000     5.495000000    -7.377000000
O    -3.854000000     8.198000000    -2.486000000
H    -4.282000000     7.848000000    -3.268000000
H    -3.239000000     7.513000000    -2.222000000
O    -1.714000000     6.398000000    -4.956000000
H    -1.758000000     6.015000000    -4.080000000
H    -0.964000000     6.992000000    -4.919000000
O    -9.319000000     1.485000000    -3.157000000
H   -10.152000000     1.619000000    -3.608000000
H    -8.725000000     2.120000000    -3.558000000
O    -5.573000000     3.878000000    -2.899000000
H    -5.271000000     3.617000000    -3.770000000
H    -4.778000000     3.896000000    -2.366000000
O    -3.180000000     0.669000000    -5.953000000
H    -2.834000000     0.920000000    -5.097000000
H    -3.581000000     1.469000000    -6.294000000
O    -1.081000000     2.757000000    -6.231000000
H    -1.722000000     3.362000000    -6.604000000
H    -1.292000000     2.730000000    -5.298000000
O    -2.232000000     5.691000000    -1.959000000
H    -2.575000000     4.797000000    -1.962000000
H    -1.659000000     5.725000000    -1.192000000
O    -1.525000000     4.960000000    -8.554000000
H    -1.326000000     4.025000000    -8.505000000
H    -0.867000000     5.315000000    -9.152000000
O     0.830000000     3.434000000    -3.657000000
H     0.166000000     3.016000000    -3.109000000
H     0.921000000     2.851000000    -4.410000000
O    -6.869000000     2.145000000    -5.678000000
H    -6.020000000     2.167000000    -5.237000000
H    -6.876000000     2.931000000    -6.224000000
O    -4.912000000     7.629000000    -5.211000000
H    -4.502000000     6.975000000    -5.777000000
H    -5.811000000     7.321000000    -5.100000000
O    -6.214000000    -0.640000000    -6.640000000
H    -5.958000000     0.176000000    -6.210000000
H    -5.556000000    -0.768000000    -7.323000000
O     1.040000000     2.988000000    -7.827000000
H     0.305000000     2.638000000    -7.325000000
H     0.794000000     2.850000000    -8.741000000
O    -7.434000000     5.673000000    -1.733000000
H    -6.765000000     5.118000000    -2.133000000
H    -8.067000000     5.829000000    -2.435000000
O    -3.907000000    -0.887000000    -8.136000000
H    -3.420000000    -0.406000000    -7.468000000
H    -4.187000000    -0.216000000    -8.759000000
O    -4.317000000     3.357000000    -5.160000000
H    -3.692000000     2.846000000    -4.645000000
H    -3.880000000     4.197000000    -5.301000000
O    -4.406000000     2.186000000    -8.232000000
H    -4.946000000     2.765000000    -7.694000000
H    -4.015000000     2.763000000    -8.888000000
