215
-1438.54495
C    -2.174000000     2.951000000     3.872000000
H    -1.610000000     3.879000000     3.837000000
C    -1.601000000     1.722000000     4.047000000
C    -2.404000000     0.581000000     4.062000000
H    -1.911000000    -0.388000000     4.098000000
C    -0.093000000     1.634000000     4.003000000
O     0.706000000     2.860000000     4.277000000
H     0.093000000     1.393000000     2.946000000
O     0.381000000     0.547000000     4.866000000
C     1.451000000    -0.262000000     4.457000000
C     1.155000000    -1.571000000     4.165000000
H     0.204000000    -2.032000000     4.422000000
C     2.016000000    -2.414000000     3.435000000
O     1.573000000    -3.670000000     3.166000000
C     3.301000000    -1.971000000     3.176000000
C     4.313000000    -2.793000000     2.436000000
H     5.342000000    -2.436000000     2.521000000
C     4.028000000    -2.793000000     0.969000000
C     4.772000000    -2.007000000     0.133000000
H     5.612000000    -1.427000000     0.506000000
H     4.328000000    -3.798000000     2.863000000
C     3.709000000    -0.675000000     3.623000000
H     4.766000000    -0.419000000     3.625000000
C     2.753000000     0.173000000     4.192000000
C     3.236000000     1.583000000     4.465000000
H     4.300000000     1.513000000     4.701000000
H     2.771000000     1.895000000     5.402000000
C     2.912000000     2.521000000     3.300000000
C     3.711000000     2.629000000     2.134000000
H     4.683000000     2.151000000     2.222000000
C     1.675000000     3.180000000     3.371000000
C     1.231000000     3.925000000     2.282000000
H     0.229000000     4.346000000     2.268000000
C     2.051000000     4.121000000     1.167000000
O     1.467000000     4.710000000     0.056000000
C     0.960000000     3.957000000    -1.067000000
C    -0.404000000     4.331000000    -1.618000000
C    -0.723000000     4.077000000    -2.969000000
H    -0.029000000     3.461000000    -3.534000000
C    -1.341000000     5.023000000    -0.899000000
H    -1.219000000     5.125000000     0.177000000
O     1.974000000     3.974000000    -2.088000000
H     0.790000000     2.894000000    -0.839000000
C     3.277000000     3.479000000     1.064000000
C     4.092000000     3.745000000    -0.213000000
H     5.130000000     3.660000000     0.113000000
H     4.012000000     4.736000000    -0.666000000
C     3.838000000     2.693000000    -1.231000000
C     4.400000000     1.420000000    -1.211000000
H     5.159000000     1.325000000    -0.439000000
C     2.792000000     2.869000000    -2.161000000
C     2.517000000     1.902000000    -3.131000000
H     1.674000000     2.076000000    -3.795000000
C     3.119000000     0.635000000    -3.056000000
O     2.677000000    -0.359000000    -3.851000000
C     1.921000000    -1.395000000    -3.291000000
C     0.728000000    -1.876000000    -4.139000000
C     0.066000000    -0.825000000    -4.895000000
H     0.384000000     0.211000000    -4.816000000
C     0.179000000    -3.159000000    -4.079000000
H     0.642000000    -3.870000000    -3.399000000
O     2.824000000    -2.515000000    -3.039000000
H     1.399000000    -1.067000000    -2.380000000
C     4.094000000     0.419000000    -2.135000000
C     4.982000000    -0.835000000    -2.160000000
H     5.962000000    -0.670000000    -1.706000000
H     5.146000000    -1.279000000    -3.144000000
C     4.437000000    -1.951000000    -1.282000000
C     3.392000000    -2.729000000    -1.817000000
C     2.747000000    -3.571000000    -0.977000000
H     1.885000000    -4.128000000    -1.335000000
C     3.050000000    -3.642000000     0.362000000
O     2.300000000    -4.591000000     1.076000000
C     1.152000000    -3.982000000     1.783000000
H     0.811000000    -2.999000000     1.427000000
C    -0.168000000    -4.757000000     1.714000000
C    -1.220000000    -4.436000000     2.627000000
H    -1.000000000    -3.822000000     3.497000000
C    -0.361000000    -5.565000000     0.557000000
H     0.367000000    -5.731000000    -0.233000000
C    -1.651000000    -5.953000000     0.359000000
O    -2.048000000    -6.642000000    -0.855000000
C    -2.707000000    -5.834000000     1.282000000
H    -3.669000000    -6.255000000     0.999000000
C    -2.477000000    -5.033000000     2.399000000
O    -3.466000000    -4.863000000     3.386000000
C    -3.443000000    -3.833000000     4.279000000
C    -3.972000000    -2.593000000     3.910000000
H    -4.558000000    -2.507000000     2.999000000
C    -2.977000000    -4.035000000     5.575000000
H    -2.598000000    -5.035000000     5.768000000
C    -2.954000000    -2.980000000     6.488000000
H    -2.637000000    -3.154000000     7.513000000
C    -3.463000000    -1.752000000     6.092000000
H    -3.622000000    -0.976000000     6.836000000
C    -4.050000000    -1.582000000     4.800000000
O    -4.642000000    -0.392000000     4.518000000
C    -3.775000000     0.652000000     4.110000000
C    -4.388000000     1.917000000     4.049000000
H    -5.446000000     2.056000000     4.259000000
C    -3.602000000     3.083000000     3.770000000
O    -4.041000000     4.370000000     3.872000000
C    -3.772000000     5.362000000     2.900000000
C    -3.708000000     5.086000000     1.571000000
H    -3.813000000     4.058000000     1.234000000
C    -3.903000000     6.732000000     3.295000000
H    -4.089000000     7.037000000     4.321000000
C    -3.964000000     7.765000000     2.326000000
H    -4.370000000     8.747000000     2.553000000
C    -3.812000000     7.440000000     0.996000000
H    -3.992000000     8.203000000     0.243000000
C    -3.570000000     6.118000000     0.638000000
O    -3.627000000     5.850000000    -0.672000000
C    -2.592000000     5.435000000    -1.415000000
C    -2.877000000     5.077000000    -2.741000000
H    -3.831000000     5.217000000    -3.243000000
C    -1.931000000     4.458000000    -3.560000000
O    -2.316000000     4.177000000    -4.857000000
C    -1.635000000     3.300000000    -5.675000000
C    -1.883000000     1.950000000    -5.632000000
H    -2.577000000     1.639000000    -4.855000000
C    -0.815000000     3.887000000    -6.623000000
H    -0.628000000     4.947000000    -6.476000000
C    -0.167000000     3.071000000    -7.562000000
H     0.536000000     3.509000000    -8.266000000
C    -0.389000000     1.684000000    -7.522000000
H     0.035000000     0.948000000    -8.200000000
C    -1.257000000     1.152000000    -6.557000000
O    -1.483000000    -0.231000000    -6.628000000
C    -0.977000000    -1.158000000    -5.795000000
C    -1.330000000    -2.510000000    -5.969000000
H    -1.964000000    -2.843000000    -6.786000000
C    -0.837000000    -3.445000000    -5.075000000
O    -1.374000000    -4.671000000    -5.218000000
C    -1.280000000    -5.706000000    -4.332000000
C    -0.535000000    -6.765000000    -4.784000000
H    -0.100000000    -6.797000000    -5.780000000
C    -0.174000000    -7.744000000    -3.836000000
H     0.334000000    -8.619000000    -4.233000000
C    -0.692000000    -7.664000000    -2.547000000
H    -0.394000000    -8.430000000    -1.836000000
C    -1.443000000    -6.600000000    -2.116000000
C    -1.746000000    -5.548000000    -2.968000000
H    -2.313000000    -4.682000000    -2.637000000
C    -2.150000000    -2.062000000     0.058000000
H    -1.986000000    -3.121000000    -0.125000000
C    -1.071000000    -1.168000000     0.023000000
H    -0.138000000    -1.710000000    -0.108000000
C    -1.143000000     0.183000000     0.406000000
H    -0.348000000     0.897000000     0.543000000
C    -2.462000000     0.655000000     0.679000000
H    -2.617000000     1.673000000     1.027000000
C    -3.538000000    -0.154000000     0.681000000
H    -4.483000000     0.284000000     0.991000000
C    -3.443000000    -1.507000000     0.325000000
C    -4.695000000    -2.373000000     0.160000000
O    -5.780000000    -1.730000000     0.094000000
O    -4.606000000    -3.537000000    -0.163000000
O    -7.594000000    -3.596000000    -0.462000000
H    -7.403000000    -4.386000000     0.044000000
H    -6.959000000    -2.952000000    -0.148000000
O    -8.649000000    -3.266000000     4.943000000
H    -8.460000000    -2.475000000     4.438000000
H    -9.217000000    -2.968000000     5.653000000
O    -6.573000000    -5.352000000     1.428000000
H    -5.887000000    -4.695000000     1.311000000
H    -6.635000000    -5.467000000     2.376000000
O    -7.479000000     0.342000000     1.482000000
H    -7.160000000     1.155000000     1.089000000
H    -6.913000000    -0.338000000     1.118000000
O    -6.014000000    -7.779000000     0.040000000
H    -5.876000000    -7.732000000    -0.906000000
H    -5.849000000    -6.889000000     0.351000000
O    -4.402000000    -0.505000000    -4.572000000
H    -5.152000000    -0.548000000    -3.979000000
H    -3.711000000    -0.093000000    -4.055000000
O    -3.054000000     1.083000000    -2.461000000
H    -3.902000000     1.513000000    -2.573000000
H    -2.961000000     0.980000000    -1.514000000
O    -5.168000000    -3.260000000    -5.099000000
H    -4.738000000    -2.405000000    -5.074000000
H    -5.176000000    -3.551000000    -4.188000000
O    -5.638000000     2.425000000    -2.345000000
H    -5.791000000     2.633000000    -1.423000000
H    -5.761000000     1.477000000    -2.400000000
O    -6.210000000    -0.653000000    -2.431000000
H    -5.983000000    -0.995000000    -1.567000000
H    -6.973000000    -1.165000000    -2.699000000
O   -10.129000000     1.105000000     2.135000000
H    -9.244000000     0.868000000     1.859000000
H   -10.621000000     1.188000000     1.318000000
O    -6.394000000    -6.391000000     4.016000000
H    -5.940000000    -7.168000000     4.343000000
H    -6.086000000    -5.680000000     4.578000000
O   -10.484000000    -3.358000000    -0.226000000
H    -9.601000000    -3.395000000    -0.595000000
H   -10.391000000    -3.725000000     0.654000000
O    -5.382000000    -4.360000000    -2.777000000
H    -4.890000000    -4.362000000    -1.956000000
H    -6.199000000    -3.909000000    -2.566000000
O    -5.085000000    -7.063000000    -2.551000000
H    -4.392000000    -7.340000000    -3.151000000
H    -5.049000000    -6.107000000    -2.569000000
O    -6.528000000     2.647000000     0.053000000
H    -6.518000000     2.985000000     0.949000000
H    -7.420000000     2.808000000    -0.253000000
O    -8.798000000    -0.931000000    -3.356000000
H    -9.238000000    -0.118000000    -3.604000000
H    -8.811000000    -1.463000000    -4.152000000
O    -9.832000000     0.812000000    -1.423000000
H   -10.653000000     0.622000000    -1.877000000
H    -9.227000000     0.136000000    -1.729000000
O    -7.702000000    -0.590000000     4.029000000
H    -7.744000000    -0.197000000     3.157000000
H    -6.804000000    -0.434000000     4.319000000
