215
-1450.85600
C    -2.383000000     3.313000000     3.321000000
H    -1.686000000     4.136000000     3.182000000
C    -1.907000000     2.034000000     3.669000000
C    -2.870000000     0.958000000     3.746000000
H    -2.539000000    -0.071000000     3.855000000
C    -0.439000000     1.764000000     3.757000000
O     0.407000000     2.927000000     4.107000000
H    -0.115000000     1.538000000     2.730000000
O    -0.156000000     0.748000000     4.696000000
C     0.708000000    -0.260000000     4.543000000
C     0.235000000    -1.537000000     4.410000000
H    -0.811000000    -1.730000000     4.635000000
C     1.077000000    -2.543000000     3.924000000
O     0.593000000    -3.807000000     3.566000000
C     2.409000000    -2.266000000     3.722000000
C     3.404000000    -3.207000000     3.036000000
H     4.431000000    -3.029000000     3.361000000
C     3.372000000    -3.173000000     1.558000000
C     4.184000000    -2.306000000     0.898000000
H     4.902000000    -1.663000000     1.400000000
H     3.189000000    -4.230000000     3.351000000
C     2.917000000    -0.963000000     3.856000000
H     3.950000000    -0.699000000     3.643000000
C     2.057000000     0.029000000     4.267000000
C     2.754000000     1.365000000     4.559000000
H     3.773000000     1.077000000     4.826000000
H     2.272000000     1.807000000     5.434000000
C     2.685000000     2.401000000     3.408000000
C     3.658000000     2.533000000     2.449000000
H     4.564000000     1.935000000     2.496000000
C     1.516000000     3.153000000     3.264000000
C     1.297000000     3.953000000     2.129000000
H     0.371000000     4.507000000     1.993000000
C     2.219000000     4.022000000     1.144000000
O     1.890000000     4.569000000    -0.042000000
C     1.461000000     3.743000000    -1.128000000
C     0.187000000     4.180000000    -1.842000000
C    -0.046000000     3.716000000    -3.131000000
H     0.634000000     2.987000000    -3.564000000
C    -0.742000000     4.909000000    -1.260000000
H    -0.592000000     5.217000000    -0.229000000
O     2.547000000     3.621000000    -2.108000000
H     1.255000000     2.753000000    -0.695000000
C     3.451000000     3.339000000     1.280000000
C     4.427000000     3.457000000     0.124000000
H     5.479000000     3.529000000     0.408000000
H     4.279000000     4.418000000    -0.372000000
C     4.209000000     2.289000000    -0.845000000
C     4.783000000     1.036000000    -0.663000000
H     5.429000000     0.794000000     0.177000000
C     3.382000000     2.482000000    -2.011000000
C     3.174000000     1.462000000    -2.905000000
H     2.576000000     1.716000000    -3.776000000
C     3.811000000     0.225000000    -2.714000000
O     3.409000000    -0.845000000    -3.515000000
C     2.392000000    -1.736000000    -3.032000000
C     1.262000000    -1.964000000    -4.021000000
C     1.288000000    -1.138000000    -5.102000000
H     2.054000000    -0.442000000    -5.436000000
C     0.246000000    -2.906000000    -3.747000000
H     0.225000000    -3.555000000    -2.876000000
O     2.998000000    -2.962000000    -2.531000000
H     1.890000000    -1.276000000    -2.168000000
C     4.652000000     0.003000000    -1.584000000
C     5.142000000    -1.348000000    -1.280000000
H     6.078000000    -1.271000000    -0.723000000
H     5.373000000    -1.884000000    -2.204000000
C     4.091000000    -2.175000000    -0.477000000
C     3.212000000    -3.034000000    -1.162000000
C     2.371000000    -3.931000000    -0.456000000
H     1.613000000    -4.505000000    -0.983000000
C     2.467000000    -3.988000000     0.889000000
O     1.450000000    -4.672000000     1.587000000
C     0.312000000    -3.999000000     2.190000000
H     0.383000000    -3.061000000     1.620000000
C    -0.961000000    -4.705000000     1.933000000
C    -2.080000000    -4.269000000     2.616000000
H    -2.086000000    -3.573000000     3.451000000
C    -1.103000000    -5.448000000     0.773000000
H    -0.202000000    -5.637000000     0.195000000
C    -2.317000000    -5.898000000     0.366000000
O    -2.459000000    -6.700000000    -0.792000000
C    -3.434000000    -5.693000000     1.176000000
H    -4.373000000    -6.116000000     0.829000000
C    -3.324000000    -4.797000000     2.282000000
O    -4.489000000    -4.313000000     2.834000000
C    -4.512000000    -3.347000000     3.751000000
C    -4.823000000    -2.068000000     3.370000000
H    -4.946000000    -1.884000000     2.305000000
C    -4.261000000    -3.610000000     5.100000000
H    -3.943000000    -4.629000000     5.305000000
C    -4.264000000    -2.588000000     6.080000000
H    -4.066000000    -2.977000000     7.076000000
C    -4.577000000    -1.301000000     5.623000000
H    -4.468000000    -0.474000000     6.320000000
C    -4.821000000    -1.013000000     4.313000000
O    -5.084000000     0.302000000     4.016000000
C    -4.205000000     1.289000000     3.838000000
C    -4.658000000     2.522000000     3.512000000
H    -5.731000000     2.639000000     3.382000000
C    -3.760000000     3.529000000     3.146000000
O    -4.239000000     4.813000000     2.953000000
C    -3.743000000     5.781000000     2.160000000
C    -3.374000000     5.483000000     0.817000000
H    -3.539000000     4.473000000     0.450000000
C    -3.826000000     7.059000000     2.581000000
H    -4.130000000     7.344000000     3.585000000
C    -3.659000000     8.087000000     1.635000000
H    -3.857000000     9.089000000     2.007000000
C    -3.211000000     7.882000000     0.324000000
H    -3.101000000     8.616000000    -0.470000000
C    -3.014000000     6.527000000    -0.078000000
O    -2.706000000     6.249000000    -1.451000000
C    -1.824000000     5.394000000    -1.979000000
C    -2.099000000     4.975000000    -3.274000000
H    -2.976000000     5.229000000    -3.863000000
C    -1.189000000     4.039000000    -3.808000000
O    -1.568000000     3.433000000    -5.040000000
C    -0.648000000     2.785000000    -5.871000000
C    -0.712000000     1.408000000    -6.121000000
H    -1.376000000     0.726000000    -5.594000000
C     0.213000000     3.614000000    -6.589000000
H     0.150000000     4.699000000    -6.579000000
C     1.228000000     3.009000000    -7.278000000
H     1.969000000     3.688000000    -7.692000000
C     1.297000000     1.619000000    -7.433000000
H     2.126000000     1.182000000    -7.985000000
C     0.198000000     0.849000000    -6.979000000
O     0.175000000    -0.507000000    -7.143000000
C     0.261000000    -1.346000000    -6.049000000
C    -0.738000000    -2.272000000    -5.861000000
H    -1.465000000    -2.484000000    -6.641000000
C    -0.761000000    -3.055000000    -4.694000000
O    -1.522000000    -4.212000000    -4.775000000
C    -1.313000000    -5.373000000    -3.935000000
C    -0.279000000    -6.304000000    -4.263000000
H     0.162000000    -6.180000000    -5.249000000
C     0.121000000    -7.283000000    -3.319000000
H     0.908000000    -8.006000000    -3.519000000
C    -0.592000000    -7.449000000    -2.085000000
H    -0.459000000    -8.292000000    -1.412000000
C    -1.652000000    -6.599000000    -1.846000000
C    -2.006000000    -5.552000000    -2.704000000
H    -2.842000000    -4.917000000    -2.424000000
C    -1.766000000    -1.892000000    -0.463000000
H    -1.991000000    -2.940000000    -0.645000000
C    -0.440000000    -1.431000000    -0.343000000
H     0.379000000    -2.124000000    -0.519000000
C    -0.169000000    -0.154000000     0.133000000
H     0.857000000     0.225000000     0.211000000
C    -1.224000000     0.699000000     0.404000000
H    -1.115000000     1.739000000     0.700000000
C    -2.535000000     0.319000000     0.226000000
H    -3.342000000     1.024000000     0.406000000
C    -2.847000000    -0.983000000    -0.207000000
C    -4.272000000    -1.325000000    -0.311000000
O    -5.164000000    -0.558000000    -0.053000000
O    -4.575000000    -2.437000000    -0.688000000
O    -7.333000000    -2.176000000    -0.318000000
H    -7.867000000    -1.392000000    -0.183000000
H    -6.436000000    -1.848000000    -0.376000000
O    -6.710000000    -4.244000000     1.504000000
H    -6.728000000    -3.408000000     1.038000000
H    -5.885000000    -4.230000000     1.990000000
O    -7.272000000     0.657000000     1.500000000
H    -7.059000000     1.590000000     1.522000000
H    -6.537000000     0.254000000     1.039000000
O    -7.405000000    -2.373000000    -3.551000000
H    -6.593000000    -2.468000000    -4.050000000
H    -7.945000000    -3.112000000    -3.831000000
O    -4.030000000    -0.131000000    -3.867000000
H    -4.517000000     0.514000000    -3.354000000
H    -3.123000000    -0.032000000    -3.577000000
O    -1.237000000     0.398000000    -2.872000000
H    -1.020000000     1.329000000    -2.838000000
H    -1.051000000     0.076000000    -1.989000000
O    -4.526000000    -2.737000000    -3.639000000
H    -4.482000000    -1.828000000    -3.937000000
H    -4.469000000    -2.680000000    -2.686000000
O    -4.716000000    -5.056000000    -5.802000000
H    -4.655000000    -6.008000000    -5.715000000
H    -4.600000000    -4.727000000    -4.911000000
O    -4.896000000     3.867000000    -2.353000000
H    -5.681000000     4.078000000    -1.847000000
H    -4.686000000     2.967000000    -2.105000000
O    -5.910000000     0.173000000    -5.915000000
H    -5.780000000    -0.658000000    -6.371000000
H    -5.254000000     0.169000000    -5.218000000
O    -5.518000000     1.225000000    -1.939000000
H    -5.524000000     0.519000000    -1.292000000
H    -6.214000000     0.993000000    -2.553000000
O    -5.442000000    -4.863000000    -1.048000000
H    -5.055000000    -3.988000000    -1.026000000
H    -6.367000000    -4.712000000    -1.239000000
O    -8.970000000    -5.532000000     0.817000000
H    -8.177000000    -5.014000000     0.953000000
H    -9.669000000    -5.008000000     1.209000000
O    -5.609000000    -7.611000000    -1.141000000
H    -6.334000000    -7.786000000    -0.540000000
H    -5.293000000    -6.743000000    -0.888000000
O    -6.931000000     3.452000000     0.346000000
H    -6.977000000     3.944000000     1.166000000
H    -7.816000000     3.109000000     0.223000000
O    -7.907000000     0.418000000    -3.428000000
H    -7.803000000     0.796000000    -4.301000000
H    -7.935000000    -0.527000000    -3.578000000
O    -8.224000000    -4.606000000    -1.704000000
H    -8.740000000    -4.964000000    -0.981000000
H    -7.819000000    -3.818000000    -1.341000000
O    -9.225000000    -0.301000000    -1.003000000
H    -8.672000000    -0.243000000    -1.782000000
H    -9.500000000     0.601000000    -0.836000000
O    -8.064000000    -0.541000000     3.857000000
H    -7.994000000     0.055000000     3.112000000
H    -7.646000000    -0.072000000     4.579000000
