215
-1446.87295
C    -2.357000000     3.525000000     3.852000000
H    -1.629000000     4.262000000     3.523000000
C    -1.937000000     2.251000000     4.261000000
C    -2.883000000     1.289000000     4.634000000
H    -2.459000000     0.325000000     4.900000000
C    -0.461000000     1.814000000     4.215000000
O     0.390000000     2.916000000     4.345000000
H    -0.339000000     1.319000000     3.241000000
O    -0.050000000     0.796000000     5.173000000
C     0.815000000    -0.155000000     4.660000000
C     0.270000000    -1.395000000     4.351000000
H    -0.788000000    -1.513000000     4.567000000
C     1.056000000    -2.439000000     3.705000000
O     0.491000000    -3.563000000     3.146000000
C     2.421000000    -2.175000000     3.571000000
C     3.345000000    -3.191000000     2.960000000
H     4.309000000    -3.078000000     3.460000000
C     3.354000000    -3.231000000     1.444000000
C     4.350000000    -2.537000000     0.743000000
H     5.110000000    -1.966000000     1.270000000
H     3.130000000    -4.201000000     3.315000000
C     2.980000000    -0.943000000     3.983000000
H     3.969000000    -0.715000000     3.595000000
C     2.197000000     0.063000000     4.372000000
C     2.845000000     1.438000000     4.755000000
H     3.931000000     1.399000000     4.862000000
H     2.417000000     1.869000000     5.662000000
C     2.652000000     2.401000000     3.587000000
C     3.670000000     2.510000000     2.542000000
H     4.655000000     2.051000000     2.530000000
C     1.434000000     3.050000000     3.430000000
C     1.206000000     3.852000000     2.340000000
H     0.276000000     4.400000000     2.212000000
C     2.112000000     3.970000000     1.325000000
O     1.712000000     4.455000000     0.095000000
C     1.363000000     3.424000000    -0.936000000
C    -0.055000000     3.568000000    -1.539000000
C    -0.253000000     3.065000000    -2.831000000
H     0.454000000     2.377000000    -3.288000000
C    -1.021000000     4.309000000    -0.937000000
H    -0.851000000     4.692000000     0.066000000
O     2.365000000     3.409000000    -2.010000000
H     1.480000000     2.415000000    -0.514000000
C     3.369000000     3.302000000     1.398000000
C     4.332000000     3.336000000     0.285000000
H     5.357000000     3.119000000     0.590000000
H     4.226000000     4.318000000    -0.181000000
C     4.116000000     2.150000000    -0.711000000
C     4.862000000     0.948000000    -0.606000000
H     5.516000000     0.737000000     0.236000000
C     3.288000000     2.343000000    -1.856000000
C     3.244000000     1.366000000    -2.794000000
H     2.547000000     1.474000000    -3.620000000
C     3.905000000     0.182000000    -2.604000000
O     3.604000000    -0.859000000    -3.451000000
C     2.587000000    -1.803000000    -3.118000000
C     1.654000000    -2.141000000    -4.255000000
C     1.670000000    -1.421000000    -5.477000000
H     2.423000000    -0.640000000    -5.551000000
C     0.644000000    -3.051000000    -4.123000000
H     0.668000000    -3.661000000    -3.224000000
O     3.274000000    -2.944000000    -2.624000000
H     1.912000000    -1.439000000    -2.329000000
C     4.709000000    -0.138000000    -1.507000000
C     5.306000000    -1.533000000    -1.294000000
H     6.242000000    -1.523000000    -0.732000000
H     5.550000000    -1.926000000    -2.283000000
C     4.347000000    -2.435000000    -0.627000000
C     3.324000000    -3.100000000    -1.299000000
C     2.375000000    -3.838000000    -0.681000000
H     1.565000000    -4.255000000    -1.273000000
C     2.459000000    -3.991000000     0.723000000
O     1.448000000    -4.675000000     1.306000000
C     0.373000000    -3.805000000     1.657000000
H     0.537000000    -2.877000000     1.089000000
C    -1.029000000    -4.206000000     1.299000000
C    -2.071000000    -3.386000000     1.673000000
H    -1.923000000    -2.397000000     2.099000000
C    -1.270000000    -5.210000000     0.397000000
H    -0.502000000    -5.920000000     0.102000000
C    -2.545000000    -5.498000000    -0.033000000
O    -2.663000000    -6.475000000    -0.938000000
C    -3.613000000    -4.755000000     0.418000000
H    -4.612000000    -4.959000000     0.044000000
C    -3.397000000    -3.671000000     1.335000000
O    -4.429000000    -2.932000000     1.868000000
C    -4.530000000    -2.515000000     3.165000000
C    -4.961000000    -1.204000000     3.443000000
H    -5.256000000    -0.602000000     2.587000000
C    -4.163000000    -3.372000000     4.240000000
H    -3.806000000    -4.385000000     4.070000000
C    -4.047000000    -2.792000000     5.545000000
H    -3.611000000    -3.466000000     6.278000000
C    -4.422000000    -1.478000000     5.800000000
H    -4.241000000    -1.035000000     6.776000000
C    -4.874000000    -0.691000000     4.750000000
O    -5.095000000     0.651000000     4.963000000
C    -4.218000000     1.655000000     4.667000000
C    -4.618000000     2.914000000     4.350000000
H    -5.649000000     3.195000000     4.546000000
C    -3.712000000     3.874000000     3.918000000
O    -4.241000000     5.147000000     3.710000000
C    -3.761000000     5.814000000     2.556000000
C    -3.595000000     5.167000000     1.350000000
H    -3.867000000     4.129000000     1.177000000
C    -3.326000000     7.113000000     2.661000000
H    -3.279000000     7.586000000     3.639000000
C    -2.915000000     7.845000000     1.589000000
H    -2.528000000     8.860000000     1.644000000
C    -2.847000000     7.212000000     0.349000000
H    -2.547000000     7.800000000    -0.515000000
C    -3.196000000     5.924000000     0.206000000
O    -3.191000000     5.291000000    -1.011000000
C    -2.190000000     4.685000000    -1.597000000
C    -2.386000000     4.225000000    -2.875000000
H    -3.343000000     4.470000000    -3.330000000
C    -1.420000000     3.434000000    -3.526000000
O    -1.793000000     2.746000000    -4.711000000
C    -0.759000000     2.437000000    -5.565000000
C    -0.682000000     1.120000000    -6.049000000
H    -1.300000000     0.325000000    -5.639000000
C     0.024000000     3.428000000    -6.172000000
H    -0.191000000     4.475000000    -5.969000000
C     0.922000000     3.138000000    -7.205000000
H     1.503000000     3.932000000    -7.667000000
C     1.022000000     1.780000000    -7.619000000
H     1.756000000     1.578000000    -8.395000000
C     0.234000000     0.762000000    -7.078000000
O     0.556000000    -0.491000000    -7.411000000
C     0.631000000    -1.453000000    -6.408000000
C    -0.434000000    -2.326000000    -6.221000000
H    -1.287000000    -2.362000000    -6.894000000
C    -0.380000000    -3.137000000    -5.040000000
O    -1.433000000    -3.989000000    -4.833000000
C    -1.365000000    -5.162000000    -4.121000000
C    -0.624000000    -6.291000000    -4.565000000
H    -0.087000000    -6.163000000    -5.501000000
C    -0.513000000    -7.414000000    -3.747000000
H     0.184000000    -8.199000000    -4.030000000
C    -1.269000000    -7.529000000    -2.558000000
H    -1.214000000    -8.488000000    -2.049000000
C    -2.006000000    -6.424000000    -2.146000000
C    -2.033000000    -5.246000000    -2.908000000
H    -2.657000000    -4.430000000    -2.551000000
C    -1.927000000    -1.208000000    -1.415000000
H    -1.916000000    -1.943000000    -2.216000000
C    -0.720000000    -1.036000000    -0.744000000
H     0.110000000    -1.648000000    -1.088000000
C    -0.734000000    -0.274000000     0.469000000
H     0.113000000     0.010000000     0.960000000
C    -1.900000000     0.387000000     0.831000000
H    -1.826000000     0.996000000     1.729000000
C    -3.037000000     0.253000000     0.024000000
H    -3.958000000     0.705000000     0.380000000
C    -3.089000000    -0.610000000    -1.065000000
C    -4.270000000    -0.777000000    -2.040000000
O    -5.187000000     0.017000000    -2.048000000
O    -4.230000000    -1.640000000    -2.918000000
O    -7.476000000     0.252000000    -0.181000000
H    -7.733000000     1.044000000    -0.654000000
H    -6.872000000    -0.195000000    -0.773000000
O    -9.535000000     1.005000000    -2.987000000
H   -10.400000000     0.675000000    -3.230000000
H    -8.950000000     0.257000000    -3.110000000
O    -9.785000000    -1.359000000    -0.631000000
H    -9.022000000    -0.924000000    -0.251000000
H   -10.535000000    -0.928000000    -0.222000000
O    -7.216000000    -2.733000000     0.594000000
H    -6.828000000    -1.860000000     0.665000000
H    -7.010000000    -3.014000000    -0.298000000
O    -6.065000000     2.333000000    -4.319000000
H    -5.435000000     1.742000000    -4.731000000
H    -5.741000000     2.444000000    -3.425000000
O    -7.079000000     4.669000000    -2.063000000
H    -7.587000000     4.339000000    -1.322000000
H    -6.324000000     4.082000000    -2.116000000
O    -8.713000000     1.192000000     2.486000000
H    -9.053000000     0.345000000     2.778000000
H    -7.989000000     0.971000000     1.901000000
O    -8.423000000     3.281000000    -4.785000000
H    -7.512000000     3.098000000    -4.557000000
H    -8.934000000     2.732000000    -4.190000000
O    -3.719000000    -1.402000000    -5.426000000
H    -3.932000000    -0.469000000    -5.448000000
H    -3.731000000    -1.629000000    -4.496000000
O    -3.835000000    -3.856000000    -6.570000000
H    -4.076000000    -3.366000000    -7.356000000
H    -3.191000000    -3.301000000    -6.130000000
O    -7.206000000    -0.812000000    -3.616000000
H    -6.395000000    -0.439000000    -3.270000000
H    -7.043000000    -0.910000000    -4.554000000
O    -6.073000000    -3.993000000    -5.005000000
H    -5.926000000    -3.463000000    -4.222000000
H    -5.200000000    -4.119000000    -5.376000000
O    -5.139000000     2.545000000    -1.579000000
H    -4.258000000     2.793000000    -1.302000000
H    -5.058000000     1.627000000    -1.840000000
O    -6.332000000    -0.874000000    -6.282000000
H    -5.446000000    -1.217000000    -6.169000000
H    -6.826000000    -1.604000000    -6.654000000
O    -4.142000000     1.436000000    -6.022000000
H    -3.712000000     0.853000000    -6.648000000
H    -3.490000000     2.113000000    -5.839000000
O    -6.922000000     1.799000000    -7.247000000
H    -6.482000000     1.041000000    -6.862000000
H    -7.360000000     2.222000000    -6.508000000
O    -7.474000000    -5.422000000    -2.705000000
H    -6.803000000    -6.058000000    -2.951000000
H    -6.995000000    -4.603000000    -2.583000000
O    -6.535000000    -2.920000000    -2.041000000
H    -7.051000000    -2.191000000    -2.387000000
H    -5.625000000    -2.650000000    -2.168000000
O    -6.720000000    -4.936000000     2.538000000
H    -6.656000000    -4.039000000     2.208000000
H    -5.833000000    -5.287000000     2.451000000
