215
-1451.90369
C    -2.587000000     3.714000000     3.161000000
H    -1.872000000     4.509000000     2.965000000
C    -2.129000000     2.415000000     3.553000000
C    -3.045000000     1.386000000     3.592000000
H    -2.728000000     0.382000000     3.862000000
C    -0.669000000     2.064000000     3.636000000
O     0.166000000     3.228000000     3.836000000
H    -0.476000000     1.524000000     2.697000000
O    -0.343000000     1.177000000     4.741000000
C     0.573000000     0.147000000     4.520000000
C     0.090000000    -1.150000000     4.373000000
H    -0.973000000    -1.362000000     4.456000000
C     0.937000000    -2.213000000     3.947000000
O     0.435000000    -3.475000000     3.748000000
C     2.374000000    -1.919000000     3.884000000
C     3.332000000    -3.078000000     3.426000000
H     4.383000000    -2.924000000     3.678000000
C     3.271000000    -3.156000000     1.931000000
C     4.176000000    -2.376000000     1.198000000
H     4.887000000    -1.830000000     1.812000000
H     2.928000000    -3.983000000     3.887000000
C     2.783000000    -0.592000000     3.988000000
H     3.852000000    -0.455000000     3.843000000
C     1.961000000     0.405000000     4.442000000
C     2.547000000     1.824000000     4.628000000
H     3.538000000     1.898000000     5.080000000
H     1.932000000     2.382000000     5.338000000
C     2.453000000     2.561000000     3.320000000
C     3.497000000     2.476000000     2.409000000
H     4.445000000     2.034000000     2.703000000
C     1.266000000     3.204000000     2.973000000
C     1.136000000     3.805000000     1.724000000
H     0.217000000     4.343000000     1.505000000
C     2.208000000     3.805000000     0.823000000
O     2.091000000     4.487000000    -0.365000000
C     1.718000000     3.669000000    -1.458000000
C     0.598000000     4.325000000    -2.335000000
C     0.482000000     3.918000000    -3.653000000
H     1.243000000     3.222000000    -3.995000000
C    -0.380000000     5.084000000    -1.684000000
H    -0.499000000     5.120000000    -0.605000000
O     2.876000000     3.293000000    -2.302000000
H     1.196000000     2.786000000    -1.060000000
C     3.329000000     3.074000000     1.158000000
C     4.536000000     3.108000000     0.205000000
H     5.462000000     2.977000000     0.769000000
H     4.470000000     4.099000000    -0.249000000
C     4.377000000     2.001000000    -0.848000000
C     4.944000000     0.779000000    -0.550000000
H     5.610000000     0.747000000     0.308000000
C     3.694000000     2.161000000    -2.040000000
C     3.481000000     1.099000000    -2.884000000
H     2.946000000     1.236000000    -3.820000000
C     3.952000000    -0.147000000    -2.532000000
O     3.526000000    -1.200000000    -3.342000000
C     2.435000000    -1.971000000    -2.767000000
C     1.304000000    -2.210000000    -3.780000000
C     1.077000000    -1.313000000    -4.827000000
H     1.625000000    -0.382000000    -4.945000000
C     0.468000000    -3.308000000    -3.664000000
H     0.695000000    -4.131000000    -2.992000000
O     3.059000000    -3.230000000    -2.280000000
H     2.044000000    -1.409000000    -1.906000000
C     4.676000000    -0.299000000    -1.378000000
C     5.187000000    -1.663000000    -1.081000000
H     6.140000000    -1.505000000    -0.573000000
H     5.427000000    -2.191000000    -2.006000000
C     4.170000000    -2.439000000    -0.217000000
C     3.232000000    -3.314000000    -0.881000000
C     2.358000000    -4.096000000    -0.194000000
H     1.513000000    -4.580000000    -0.677000000
C     2.402000000    -4.023000000     1.230000000
O     1.282000000    -4.602000000     1.836000000
C     0.186000000    -3.880000000     2.335000000
H     0.109000000    -2.948000000     1.755000000
C    -1.160000000    -4.566000000     2.151000000
C    -2.317000000    -4.108000000     2.785000000
H    -2.276000000    -3.310000000     3.522000000
C    -1.302000000    -5.454000000     1.089000000
H    -0.475000000    -5.835000000     0.496000000
C    -2.537000000    -6.014000000     0.838000000
O    -2.724000000    -6.917000000    -0.245000000
C    -3.656000000    -5.627000000     1.611000000
H    -4.628000000    -6.068000000     1.402000000
C    -3.581000000    -4.669000000     2.602000000
O    -4.761000000    -4.293000000     3.234000000
C    -4.950000000    -3.137000000     3.925000000
C    -5.075000000    -1.935000000     3.243000000
H    -5.233000000    -1.916000000     2.168000000
C    -4.809000000    -3.043000000     5.314000000
H    -4.759000000    -4.002000000     5.823000000
C    -4.752000000    -1.849000000     6.025000000
H    -4.677000000    -1.841000000     7.110000000
C    -4.912000000    -0.640000000     5.305000000
H    -4.893000000     0.360000000     5.731000000
C    -5.039000000    -0.699000000     3.934000000
O    -5.242000000     0.509000000     3.272000000
C    -4.364000000     1.579000000     3.328000000
C    -4.788000000     2.829000000     2.843000000
H    -5.820000000     2.980000000     2.539000000
C    -3.906000000     3.893000000     2.796000000
O    -4.407000000     5.119000000     2.467000000
C    -3.686000000     5.991000000     1.692000000
C    -3.518000000     5.800000000     0.288000000
H    -4.182000000     5.061000000    -0.152000000
C    -2.920000000     6.954000000     2.315000000
H    -2.829000000     6.926000000     3.398000000
C    -2.029000000     7.693000000     1.584000000
H    -1.345000000     8.332000000     2.137000000
C    -1.888000000     7.593000000     0.179000000
H    -1.214000000     8.274000000    -0.335000000
C    -2.634000000     6.610000000    -0.464000000
O    -2.442000000     6.337000000    -1.825000000
C    -1.441000000     5.584000000    -2.432000000
C    -1.558000000     5.203000000    -3.785000000
H    -2.366000000     5.570000000    -4.413000000
C    -0.619000000     4.407000000    -4.369000000
O    -0.745000000     4.098000000    -5.732000000
C    -0.135000000     3.109000000    -6.373000000
C    -0.627000000     1.864000000    -6.394000000
H    -1.632000000     1.684000000    -6.021000000
C     1.147000000     3.380000000    -6.864000000
H     1.506000000     4.406000000    -6.880000000
C     1.974000000     2.253000000    -7.227000000
H     3.018000000     2.405000000    -7.488000000
C     1.512000000     0.996000000    -7.164000000
H     2.102000000     0.128000000    -7.445000000
C     0.183000000     0.814000000    -6.763000000
O    -0.345000000    -0.447000000    -6.630000000
C    -0.009000000    -1.437000000    -5.725000000
C    -0.881000000    -2.484000000    -5.475000000
H    -1.801000000    -2.539000000    -6.051000000
C    -0.679000000    -3.453000000    -4.485000000
O    -1.593000000    -4.539000000    -4.373000000
C    -1.382000000    -5.694000000    -3.541000000
C    -1.098000000    -6.916000000    -4.151000000
H    -0.958000000    -6.939000000    -5.229000000
C    -1.162000000    -8.140000000    -3.413000000
H    -0.872000000    -9.010000000    -3.996000000
C    -1.604000000    -8.087000000    -2.009000000
H    -1.530000000    -8.985000000    -1.400000000
C    -2.045000000    -6.846000000    -1.475000000
C    -1.859000000    -5.692000000    -2.267000000
H    -2.332000000    -4.794000000    -1.878000000
C    -1.671000000    -1.772000000    -0.553000000
H    -1.591000000    -2.756000000    -1.007000000
C    -0.528000000    -1.073000000    -0.293000000
H     0.452000000    -1.422000000    -0.608000000
C    -0.546000000     0.274000000     0.173000000
H     0.389000000     0.845000000     0.385000000
C    -1.809000000     0.744000000     0.547000000
H    -1.823000000     1.761000000     0.931000000
C    -2.976000000     0.074000000     0.319000000
H    -3.936000000     0.529000000     0.550000000
C    -2.958000000    -1.224000000    -0.183000000
C    -4.168000000    -2.070000000    -0.492000000
O    -5.256000000    -1.666000000    -0.133000000
O    -4.050000000    -3.112000000    -1.142000000
O    -8.845000000    -4.134000000    -1.586000000
H    -8.770000000    -5.012000000    -1.213000000
H    -9.624000000    -3.763000000    -1.171000000
O    -7.413000000    -6.604000000    -3.167000000
H    -7.066000000    -5.715000000    -3.096000000
H    -7.165000000    -7.024000000    -2.343000000
O    -6.906000000    -3.400000000     0.708000000
H    -7.741000000    -2.952000000     0.572000000
H    -6.246000000    -2.768000000     0.424000000
O    -6.535000000     0.480000000    -0.067000000
H    -6.756000000     0.528000000    -0.997000000
H    -6.007000000    -0.314000000     0.013000000
O    -3.444000000     0.108000000    -5.973000000
H    -4.043000000    -0.111000000    -5.260000000
H    -2.594000000    -0.221000000    -5.681000000
O    -3.476000000     0.223000000    -2.823000000
H    -2.965000000    -0.185000000    -2.124000000
H    -3.547000000     1.142000000    -2.564000000
O    -4.670000000    -2.229000000    -3.431000000
H    -4.227000000    -1.380000000    -3.406000000
H    -4.408000000    -2.659000000    -2.617000000
O    -4.011000000     2.749000000    -2.326000000
H    -4.645000000     2.677000000    -3.039000000
H    -4.237000000     3.568000000    -1.886000000
O    -6.505000000     3.722000000    -0.992000000
H    -7.090000000     3.965000000    -0.275000000
H    -6.446000000     2.768000000    -0.940000000
O    -7.815000000    -0.145000000     4.774000000
H    -7.356000000    -0.337000000     3.957000000
H    -7.436000000     0.682000000     5.073000000
O   -10.441000000    -2.472000000    -0.037000000
H    -9.735000000    -2.278000000     0.579000000
H   -11.065000000    -1.755000000     0.080000000
O    -4.788000000    -5.075000000    -3.786000000
H    -3.873000000    -4.813000000    -3.885000000
H    -5.284000000    -4.266000000    -3.908000000
O    -5.909000000    -5.653000000    -0.816000000
H    -6.124000000    -4.998000000    -0.152000000
H    -5.235000000    -5.237000000    -1.354000000
O    -7.445000000    -5.847000000     2.017000000
H    -7.264000000    -4.926000000     1.833000000
H    -6.604000000    -6.205000000     2.301000000
O    -8.680000000     0.466000000     1.584000000
H    -7.901000000     0.546000000     1.034000000
H    -8.552000000    -0.353000000     2.063000000
O    -5.530000000    -8.221000000    -1.057000000
H    -5.628000000    -7.285000000    -0.879000000
H    -5.084000000    -8.258000000    -1.903000000
O    -7.899000000    -2.535000000    -3.739000000
H    -6.952000000    -2.478000000    -3.613000000
H    -8.229000000    -2.886000000    -2.912000000
O    -7.483000000     0.351000000    -2.588000000
H    -8.105000000     0.855000000    -3.114000000
H    -7.621000000    -0.556000000    -2.858000000
O    -8.890000000    -2.201000000     2.447000000
H    -8.569000000    -2.937000000     2.967000000
H    -9.728000000    -1.971000000     2.849000000
