215
-1422.55851
C    -1.901000000     3.724000000     4.140000000
H    -1.111000000     4.469000000     4.103000000
C    -1.591000000     2.356000000     4.270000000
C    -2.578000000     1.431000000     4.408000000
H    -2.392000000     0.360000000     4.406000000
C    -0.089000000     1.933000000     4.229000000
O     0.817000000     3.098000000     4.329000000
H    -0.002000000     1.540000000     3.206000000
O     0.252000000     0.854000000     5.229000000
C     1.038000000    -0.185000000     4.735000000
C     0.407000000    -1.381000000     4.386000000
H    -0.668000000    -1.471000000     4.519000000
C     1.038000000    -2.415000000     3.697000000
O     0.267000000    -3.425000000     3.245000000
C     2.431000000    -2.265000000     3.439000000
C     3.275000000    -3.400000000     2.814000000
H     4.325000000    -3.256000000     3.077000000
C     3.218000000    -3.411000000     1.336000000
C     4.236000000    -2.766000000     0.590000000
H     4.991000000    -2.188000000     1.117000000
H     2.973000000    -4.415000000     3.079000000
C     3.029000000    -1.057000000     3.735000000
H     4.091000000    -1.018000000     3.503000000
C     2.385000000     0.022000000     4.446000000
C     3.161000000     1.295000000     4.612000000
H     4.234000000     1.091000000     4.583000000
H     2.770000000     1.796000000     5.500000000
C     2.955000000     2.286000000     3.441000000
C     3.917000000     2.214000000     2.399000000
H     4.806000000     1.593000000     2.478000000
C     1.763000000     3.003000000     3.307000000
C     1.563000000     3.809000000     2.142000000
H     0.730000000     4.506000000     2.162000000
C     2.499000000     3.689000000     1.096000000
O     2.200000000     4.238000000    -0.205000000
C     1.731000000     3.509000000    -1.308000000
C     0.460000000     4.039000000    -1.946000000
C     0.087000000     3.778000000    -3.242000000
H     0.778000000     3.371000000    -3.976000000
C    -0.441000000     4.745000000    -1.119000000
H    -0.105000000     4.844000000    -0.090000000
O     2.761000000     3.324000000    -2.298000000
H     1.386000000     2.509000000    -1.009000000
C     3.643000000     2.892000000     1.212000000
C     4.606000000     2.929000000     0.130000000
H     5.550000000     2.634000000     0.593000000
H     4.679000000     3.944000000    -0.267000000
C     4.140000000     1.894000000    -0.944000000
C     4.778000000     0.659000000    -0.866000000
H     5.429000000     0.542000000    -0.004000000
C     3.375000000     2.173000000    -2.091000000
C     3.088000000     1.141000000    -2.951000000
H     2.331000000     1.279000000    -3.720000000
C     3.642000000    -0.134000000    -2.835000000
O     3.286000000    -1.033000000    -3.850000000
C     2.291000000    -2.049000000    -3.424000000
C     1.164000000    -2.306000000    -4.366000000
C     0.586000000    -1.233000000    -5.006000000
H     0.914000000    -0.230000000    -4.748000000
C     0.666000000    -3.569000000    -4.477000000
H     1.154000000    -4.383000000    -3.946000000
O     2.965000000    -3.146000000    -2.822000000
H     1.721000000    -1.631000000    -2.581000000
C     4.402000000    -0.409000000    -1.707000000
C     5.096000000    -1.773000000    -1.560000000
H     6.006000000    -1.729000000    -0.959000000
H     5.378000000    -2.069000000    -2.573000000
C     4.215000000    -2.710000000    -0.772000000
C     3.061000000    -3.197000000    -1.455000000
C     2.085000000    -3.885000000    -0.788000000
H     1.235000000    -4.260000000    -1.351000000
C     2.144000000    -3.988000000     0.620000000
O     1.032000000    -4.538000000     1.283000000
C     0.044000000    -3.643000000     1.854000000
H     0.283000000    -2.696000000     1.348000000
C    -1.382000000    -4.000000000     1.423000000
C    -2.509000000    -3.573000000     2.104000000
H    -2.288000000    -2.993000000     2.997000000
C    -1.576000000    -4.788000000     0.257000000
H    -0.678000000    -5.145000000    -0.241000000
C    -2.866000000    -5.161000000    -0.117000000
O    -3.189000000    -5.974000000    -1.163000000
C    -3.968000000    -4.622000000     0.581000000
H    -4.998000000    -4.822000000     0.295000000
C    -3.797000000    -3.812000000     1.659000000
O    -4.918000000    -3.438000000     2.455000000
C    -4.938000000    -2.583000000     3.567000000
C    -4.915000000    -1.182000000     3.332000000
H    -5.034000000    -0.771000000     2.333000000
C    -4.902000000    -3.122000000     4.860000000
H    -4.942000000    -4.198000000     5.012000000
C    -5.095000000    -2.289000000     5.959000000
H    -5.368000000    -2.607000000     6.962000000
C    -5.007000000    -0.896000000     5.727000000
H    -5.143000000    -0.208000000     6.557000000
C    -4.834000000    -0.394000000     4.440000000
O    -4.880000000     0.999000000     4.388000000
C    -3.858000000     1.890000000     4.432000000
C    -4.224000000     3.215000000     4.175000000
H    -5.259000000     3.511000000     4.027000000
C    -3.266000000     4.156000000     4.115000000
O    -3.586000000     5.495000000     3.857000000
C    -2.975000000     6.185000000     2.853000000
C    -3.177000000     5.752000000     1.542000000
H    -3.884000000     4.945000000     1.365000000
C    -2.137000000     7.259000000     3.122000000
H    -1.977000000     7.749000000     4.079000000
C    -1.364000000     7.677000000     2.076000000
H    -0.730000000     8.547000000     2.227000000
C    -1.467000000     7.174000000     0.767000000
H    -0.861000000     7.595000000    -0.031000000
C    -2.344000000     6.148000000     0.520000000
O    -2.664000000     5.735000000    -0.776000000
C    -1.708000000     5.145000000    -1.595000000
C    -2.081000000     4.906000000    -2.921000000
H    -3.009000000     5.297000000    -3.330000000
C    -1.198000000     4.198000000    -3.740000000
O    -1.643000000     3.889000000    -4.991000000
C    -1.043000000     3.019000000    -5.787000000
C    -1.445000000     1.723000000    -5.714000000
H    -2.259000000     1.385000000    -5.078000000
C    -0.035000000     3.417000000    -6.660000000
H     0.380000000     4.420000000    -6.716000000
C     0.588000000     2.497000000    -7.435000000
H     1.365000000     2.865000000    -8.101000000
C     0.126000000     1.184000000    -7.481000000
H     0.581000000     0.387000000    -8.063000000
C    -0.878000000     0.807000000    -6.610000000
O    -1.160000000    -0.536000000    -6.603000000
C    -0.417000000    -1.518000000    -5.950000000
C    -0.849000000    -2.844000000    -6.139000000
H    -1.738000000    -3.116000000    -6.701000000
C    -0.350000000    -3.912000000    -5.420000000
O    -0.996000000    -5.090000000    -5.376000000
C    -1.185000000    -5.805000000    -4.243000000
C    -0.440000000    -6.927000000    -4.135000000
H     0.287000000    -7.274000000    -4.865000000
C    -0.465000000    -7.703000000    -2.962000000
H     0.160000000    -8.571000000    -2.771000000
C    -1.411000000    -7.360000000    -1.943000000
H    -1.523000000    -7.828000000    -0.968000000
C    -2.267000000    -6.268000000    -2.152000000
C    -2.149000000    -5.450000000    -3.332000000
H    -2.898000000    -4.678000000    -3.487000000
C    -3.031000000    -1.147000000    -0.923000000
H    -3.466000000    -1.805000000    -1.670000000
C    -1.679000000    -1.131000000    -0.654000000
H    -1.058000000    -1.717000000    -1.326000000
C    -1.130000000    -0.335000000     0.302000000
H    -0.109000000    -0.493000000     0.517000000
C    -1.884000000     0.601000000     0.903000000
H    -1.460000000     1.361000000     1.554000000
C    -3.243000000     0.664000000     0.613000000
H    -3.862000000     1.434000000     1.067000000
C    -3.848000000    -0.370000000    -0.157000000
C    -5.369000000    -0.309000000    -0.327000000
O    -6.024000000     0.389000000     0.454000000
O    -5.943000000    -1.010000000    -1.125000000
O    -7.541000000     0.610000000    -2.453000000
H    -7.157000000     1.482000000    -2.549000000
H    -7.179000000     0.278000000    -1.631000000
O   -10.120000000     0.067000000    -3.598000000
H   -10.276000000    -0.693000000    -3.037000000
H    -9.170000000     0.181000000    -3.588000000
O   -10.211000000    -2.418000000    -2.532000000
H    -9.569000000    -2.354000000    -1.825000000
H    -9.720000000    -2.782000000    -3.269000000
O    -8.285000000    -2.123000000    -0.624000000
H    -8.026000000    -2.259000000     0.288000000
H    -7.594000000    -1.570000000    -0.989000000
O    -9.831000000     3.930000000     0.830000000
H    -9.874000000     3.051000000     0.453000000
H    -8.897000000     4.135000000     0.854000000
O    -7.490000000     4.289000000    -2.628000000
H    -7.159000000     4.514000000    -3.497000000
H    -6.954000000     4.805000000    -2.026000000
O    -5.872000000     6.160000000    -1.122000000
H    -6.250000000     5.492000000    -0.551000000
H    -4.935000000     6.138000000    -0.929000000
O    -7.651000000     1.918000000     1.618000000
H    -7.581000000     1.371000000     2.400000000
H    -7.115000000     1.471000000     0.964000000
O    -9.953000000     3.366000000    -2.526000000
H    -9.061000000     3.713000000    -2.519000000
H    -9.976000000     2.750000000    -1.793000000
O    -5.737000000    -1.283000000    -3.948000000
H    -6.401000000    -1.261000000    -3.259000000
H    -6.048000000    -0.655000000    -4.600000000
O    -4.632000000    -2.732000000    -5.986000000
H    -4.042000000    -2.012000000    -6.208000000
H    -5.192000000    -2.380000000    -5.294000000
O    -4.196000000     0.998000000    -2.905000000
H    -4.841000000     0.307000000    -3.055000000
H    -3.372000000     0.530000000    -2.765000000
O    -6.589000000     0.790000000    -5.652000000
H    -5.789000000     1.315000000    -5.661000000
H    -7.288000000     1.422000000    -5.484000000
O    -6.906000000     4.303000000     0.956000000
H    -7.039000000     3.410000000     1.273000000
H    -6.978000000     4.848000000     1.740000000
O    -5.928000000    -5.832000000    -3.546000000
H    -5.772000000    -5.238000000    -2.813000000
H    -5.602000000    -5.358000000    -4.312000000
O    -6.063000000    -3.801000000    -1.670000000
H    -6.915000000    -3.556000000    -1.309000000
H    -5.551000000    -2.992000000    -1.647000000
O    -8.441000000    -4.902000000     1.481000000
H    -8.295000000    -3.987000000     1.720000000
H    -8.778000000    -5.308000000     2.280000000
O    -7.772000000     1.030000000     5.233000000
H    -6.903000000     0.845000000     4.876000000
H    -7.860000000     1.981000000     5.168000000
O   -10.068000000     1.338000000    -0.790000000
H   -10.362000000     0.531000000    -1.213000000
H    -9.113000000     1.280000000    -0.801000000
