215
-1422.48841
C     3.881000000    -0.596000000    -3.084000000
H     3.904000000    -1.673000000    -3.233000000
C     4.009000000     0.131000000    -1.950000000
C     4.033000000     1.526000000    -2.075000000
H     3.948000000     2.168000000    -1.201000000
C     4.141000000    -0.566000000    -0.580000000
O     4.499000000    -1.938000000    -0.734000000
H     3.137000000    -0.547000000    -0.132000000
O     4.961000000     0.061000000     0.458000000
C     4.500000000     0.088000000     1.744000000
C     3.998000000     1.362000000     2.140000000
H     4.092000000     2.238000000     1.504000000
C     3.314000000     1.497000000     3.344000000
O     2.712000000     2.666000000     3.503000000
C     3.015000000     0.365000000     4.107000000
C     2.132000000     0.464000000     5.249000000
H     2.300000000    -0.348000000     5.960000000
C     0.635000000     0.380000000     4.822000000
C    -0.028000000    -0.824000000     4.857000000
H     0.524000000    -1.740000000     5.051000000
H     2.280000000     1.400000000     5.792000000
C     3.493000000    -0.859000000     3.665000000
H     3.261000000    -1.701000000     4.312000000
C     4.244000000    -1.012000000     2.481000000
C     4.581000000    -2.516000000     2.066000000
H     4.664000000    -3.091000000     2.991000000
H     5.532000000    -2.626000000     1.541000000
C     3.512000000    -3.056000000     1.202000000
C     2.465000000    -3.811000000     1.688000000
H     2.453000000    -4.021000000     2.754000000
C     3.592000000    -2.861000000    -0.184000000
C     2.570000000    -3.426000000    -0.992000000
H     2.611000000    -3.355000000    -2.075000000
C     1.504000000    -4.204000000    -0.437000000
O     0.576000000    -4.693000000    -1.282000000
C    -0.763000000    -4.093000000    -1.231000000
C    -1.345000000    -3.805000000    -2.695000000
C    -2.703000000    -3.597000000    -2.823000000
H    -3.392000000    -3.878000000    -2.030000000
C    -0.557000000    -3.595000000    -3.845000000
H     0.519000000    -3.706000000    -3.741000000
O    -1.735000000    -4.770000000    -0.407000000
H    -0.698000000    -3.083000000    -0.799000000
C     1.487000000    -4.474000000     0.930000000
C     0.414000000    -5.326000000     1.581000000
H     0.828000000    -5.796000000     2.475000000
H     0.056000000    -6.169000000     0.987000000
C    -0.888000000    -4.491000000     1.830000000
C    -1.044000000    -3.888000000     3.083000000
H    -0.323000000    -4.032000000     3.883000000
C    -1.902000000    -4.334000000     0.888000000
C    -2.982000000    -3.480000000     1.104000000
H    -3.705000000    -3.393000000     0.297000000
C    -3.038000000    -2.782000000     2.324000000
O    -4.026000000    -1.826000000     2.372000000
C    -3.528000000    -0.425000000     2.245000000
C    -4.522000000     0.397000000     1.398000000
C    -5.083000000    -0.128000000     0.213000000
H    -4.986000000    -1.181000000    -0.040000000
C    -4.796000000     1.785000000     1.710000000
H    -4.229000000     2.312000000     2.473000000
O    -3.284000000     0.313000000     3.480000000
H    -2.583000000    -0.421000000     1.683000000
C    -2.081000000    -2.994000000     3.314000000
C    -2.146000000    -2.240000000     4.649000000
H    -1.783000000    -2.838000000     5.487000000
H    -3.193000000    -1.990000000     4.831000000
C    -1.407000000    -0.904000000     4.554000000
C    -2.050000000     0.261000000     4.086000000
C    -1.349000000     1.497000000     3.961000000
H    -1.827000000     2.380000000     3.545000000
C    -0.060000000     1.499000000     4.390000000
O     0.518000000     2.742000000     4.084000000
C     1.401000000     2.836000000     2.946000000
H     1.213000000     1.919000000     2.369000000
C     1.306000000     4.097000000     2.102000000
C     2.468000000     4.821000000     1.678000000
H     3.417000000     4.415000000     2.019000000
C     0.013000000     4.501000000     1.648000000
H    -0.749000000     3.796000000     1.970000000
C    -0.214000000     5.560000000     0.747000000
O    -1.475000000     5.848000000     0.297000000
C     0.929000000     6.276000000     0.343000000
H     0.702000000     7.001000000    -0.435000000
C     2.202000000     5.925000000     0.787000000
O     3.272000000     6.587000000     0.197000000
C     4.200000000     5.879000000    -0.553000000
C     3.715000000     5.174000000    -1.666000000
H     2.690000000     5.268000000    -2.015000000
C     5.544000000     5.992000000    -0.315000000
H     5.881000000     6.565000000     0.545000000
C     6.475000000     5.189000000    -0.899000000
H     7.530000000     5.192000000    -0.635000000
C     5.944000000     4.347000000    -1.931000000
H     6.729000000     3.783000000    -2.428000000
C     4.620000000     4.378000000    -2.387000000
O     4.178000000     3.600000000    -3.376000000
C     4.013000000     2.217000000    -3.283000000
C     3.947000000     1.462000000    -4.447000000
H     4.030000000     1.946000000    -5.417000000
C     3.764000000     0.077000000    -4.307000000
O     3.717000000    -0.608000000    -5.510000000
C     3.150000000    -1.817000000    -5.681000000
C     1.737000000    -1.843000000    -5.854000000
H     1.183000000    -0.907000000    -5.863000000
C     3.899000000    -3.003000000    -5.557000000
H     4.969000000    -2.880000000    -5.408000000
C     3.232000000    -4.239000000    -5.690000000
H     3.834000000    -5.141000000    -5.763000000
C     1.877000000    -4.310000000    -6.016000000
H     1.448000000    -5.265000000    -6.307000000
C     1.148000000    -3.093000000    -6.079000000
O    -0.252000000    -3.196000000    -6.238000000
C    -1.068000000    -3.263000000    -5.098000000
C    -2.441000000    -3.013000000    -5.124000000
H    -3.007000000    -2.842000000    -6.035000000
C    -3.246000000    -3.238000000    -4.045000000
O    -4.619000000    -3.144000000    -4.306000000
C    -5.506000000    -2.832000000    -3.332000000
C    -5.718000000    -1.528000000    -3.035000000
H    -5.230000000    -0.777000000    -3.651000000
C    -6.318000000    -3.790000000    -2.732000000
H    -6.119000000    -4.847000000    -2.888000000
C    -7.383000000    -3.442000000    -1.913000000
H    -7.971000000    -4.193000000    -1.390000000
C    -7.440000000    -2.108000000    -1.507000000
H    -8.039000000    -1.709000000    -0.692000000
C    -6.632000000    -1.121000000    -2.073000000
O    -6.635000000     0.148000000    -1.632000000
C    -6.009000000     0.641000000    -0.537000000
C    -6.212000000     1.940000000    -0.157000000
H    -6.805000000     2.474000000    -0.896000000
C    -5.584000000     2.557000000     0.904000000
O    -5.803000000     3.919000000     1.177000000
C    -4.713000000     4.654000000     1.692000000
C    -4.688000000     5.427000000     2.904000000
H    -5.501000000     5.277000000     3.611000000
C    -3.690000000     6.296000000     3.173000000
H    -3.776000000     7.007000000     3.992000000
C    -2.638000000     6.539000000     2.237000000
H    -1.799000000     7.181000000     2.490000000
C    -2.583000000     5.710000000     1.136000000
C    -3.626000000     4.918000000     0.780000000
H    -3.718000000     4.416000000    -0.180000000
C    -0.426000000     0.120000000    -2.146000000
H    -0.362000000    -0.137000000    -3.200000000
C     0.268000000    -0.644000000    -1.186000000
H     0.782000000    -1.557000000    -1.476000000
C     0.204000000    -0.331000000     0.109000000
H     0.597000000    -1.062000000     0.766000000
C    -0.389000000     0.916000000     0.468000000
H    -0.400000000     1.254000000     1.501000000
C    -0.924000000     1.785000000    -0.463000000
H    -1.287000000     2.745000000    -0.105000000
C    -0.850000000     1.409000000    -1.820000000
C    -1.571000000     2.244000000    -2.854000000
O    -1.956000000     3.395000000    -2.608000000
O    -1.559000000     1.949000000    -4.027000000
O    -1.736000000     7.715000000    -4.008000000
H    -2.221000000     8.507000000    -3.778000000
H    -1.798000000     7.664000000    -4.962000000
O    -0.844000000     0.422000000    -7.973000000
H    -1.706000000     0.285000000    -7.580000000
H    -0.266000000     0.592000000    -7.229000000
O    -5.557000000     6.550000000    -3.078000000
H    -5.342000000     5.653000000    -2.824000000
H    -5.243000000     6.625000000    -3.980000000
O     0.896000000     8.129000000    -2.914000000
H     0.568000000     7.244000000    -3.072000000
H     0.236000000     8.702000000    -3.306000000
O    -6.571000000     3.906000000    -4.822000000
H    -5.828000000     4.086000000    -4.246000000
H    -6.172000000     3.663000000    -5.658000000
O    -4.561000000     3.881000000    -2.538000000
H    -4.659000000     2.994000000    -2.885000000
H    -3.617000000     3.993000000    -2.430000000
O     3.736000000     4.899000000    -6.917000000
H     3.105000000     4.207000000    -7.114000000
H     3.244000000     5.712000000    -7.032000000
O    -1.823000000     2.048000000    -9.993000000
H    -2.720000000     2.380000000    -9.961000000
H    -1.769000000     1.433000000    -9.262000000
O     0.648000000     1.848000000    -5.469000000
H    -0.113000000     1.906000000    -4.891000000
H     0.814000000     2.751000000    -5.737000000
O    -2.248000000     4.172000000    -5.314000000
H    -2.506000000     4.851000000    -4.690000000
H    -2.051000000     3.409000000    -4.769000000
O    -0.587000000     5.611000000    -2.813000000
H    -1.033000000     4.791000000    -2.604000000
H    -1.294000000     6.247000000    -2.924000000
O     0.973000000     4.525000000    -4.722000000
H     1.053000000     3.653000000    -4.335000000
H     0.532000000     5.045000000    -4.050000000
O    -7.273000000     0.899000000    -4.423000000
H    -6.394000000     0.712000000    -4.094000000
H    -7.709000000     1.351000000    -3.701000000
O     1.056000000     4.024000000    -7.326000000
H     0.501000000     4.577000000    -7.876000000
H     0.772000000     4.215000000    -6.432000000
O    -3.701000000    -0.118000000    -7.224000000
H    -4.173000000     0.661000000    -7.519000000
H    -4.361000000    -0.636000000    -6.762000000
O    -4.381000000     1.420000000    -4.268000000
H    -3.438000000     1.302000000    -4.152000000
H    -4.457000000     2.022000000    -5.008000000
O    -1.918000000     7.540000000    -6.783000000
H    -1.997000000     8.337000000    -7.308000000
H    -2.120000000     6.830000000    -7.393000000
O     1.414000000     1.714000000    -8.601000000
H     0.705000000     1.116000000    -8.363000000
H     1.241000000     2.505000000    -8.091000000
O    -4.502000000     3.903000000    -6.861000000
H    -4.408000000     3.705000000    -7.793000000
H    -3.611000000     4.093000000    -6.566000000
