215
-1440.99578
C    -2.925000000     1.922000000     2.965000000
H    -2.032000000     2.483000000     2.701000000
C    -2.728000000     0.707000000     3.655000000
C    -3.791000000    -0.170000000     3.924000000
H    -3.584000000    -1.138000000     4.373000000
C    -1.297000000     0.296000000     3.993000000
O    -0.525000000     1.425000000     4.549000000
H    -0.817000000    -0.022000000     3.057000000
O    -1.195000000    -0.849000000     4.896000000
C    -0.319000000    -1.870000000     4.568000000
C    -0.825000000    -2.952000000     3.846000000
H    -1.883000000    -2.958000000     3.595000000
C     0.066000000    -3.742000000     3.068000000
O    -0.521000000    -4.577000000     2.104000000
C     1.450000000    -3.613000000     3.175000000
C     2.486000000    -4.416000000     2.297000000
H     3.487000000    -4.406000000     2.735000000
C     2.588000000    -3.870000000     0.841000000
C     3.803000000    -3.315000000     0.582000000
H     4.486000000    -3.156000000     1.413000000
H     2.135000000    -5.449000000     2.247000000
C     1.937000000    -2.612000000     4.041000000
H     2.998000000    -2.378000000     4.071000000
C     1.111000000    -1.657000000     4.614000000
C     1.587000000    -0.445000000     5.289000000
H     2.528000000    -0.725000000     5.766000000
H     0.898000000    -0.111000000     6.067000000
C     1.822000000     0.715000000     4.334000000
C     3.045000000     0.894000000     3.750000000
H     3.928000000     0.365000000     4.101000000
C     0.771000000     1.598000000     3.995000000
C     1.113000000     2.819000000     3.349000000
H     0.363000000     3.602000000     3.277000000
C     2.347000000     2.942000000     2.718000000
O     2.503000000     3.964000000     1.835000000
C     2.358000000     3.647000000     0.404000000
C     1.324000000     4.563000000    -0.314000000
C     1.081000000     4.266000000    -1.610000000
H     1.546000000     3.452000000    -2.160000000
C     0.537000000     5.510000000     0.330000000
H     0.738000000     5.678000000     1.385000000
O     3.691000000     3.534000000    -0.216000000
H     1.953000000     2.624000000     0.410000000
C     3.303000000     1.963000000     2.866000000
C     4.651000000     2.138000000     2.232000000
H     5.309000000     1.526000000     2.853000000
H     4.889000000     3.201000000     2.314000000
C     4.629000000     1.588000000     0.838000000
C     4.970000000     0.226000000     0.604000000
H     5.294000000    -0.346000000     1.470000000
C     4.218000000     2.264000000    -0.267000000
C     4.209000000     1.637000000    -1.505000000
H     3.877000000     2.147000000    -2.405000000
C     4.439000000     0.259000000    -1.666000000
O     4.180000000    -0.269000000    -2.933000000
C     2.980000000    -1.041000000    -3.066000000
C     2.370000000    -0.784000000    -4.403000000
C     2.527000000     0.479000000    -5.030000000
H     3.182000000     1.189000000    -4.533000000
C     1.398000000    -1.618000000    -5.017000000
H     1.139000000    -2.542000000    -4.506000000
O     3.338000000    -2.441000000    -2.954000000
H     2.262000000    -0.759000000    -2.282000000
C     4.937000000    -0.426000000    -0.612000000
C     5.367000000    -1.925000000    -0.773000000
H     6.073000000    -2.083000000     0.045000000
H     5.825000000    -2.092000000    -1.749000000
C     4.077000000    -2.851000000    -0.640000000
C     3.216000000    -3.126000000    -1.757000000
C     2.013000000    -3.750000000    -1.515000000
H     1.219000000    -3.714000000    -2.256000000
C     1.723000000    -4.176000000    -0.198000000
O     0.441000000    -4.788000000    -0.024000000
C    -0.538000000    -4.094000000     0.818000000
H    -0.182000000    -3.054000000     0.762000000
C    -1.855000000    -4.052000000     0.125000000
C    -3.064000000    -4.287000000     0.809000000
H    -3.079000000    -4.658000000     1.830000000
C    -1.941000000    -3.654000000    -1.161000000
H    -1.067000000    -3.515000000    -1.792000000
C    -3.079000000    -3.531000000    -1.903000000
O    -3.170000000    -3.179000000    -3.239000000
C    -4.274000000    -3.609000000    -1.215000000
H    -5.236000000    -3.454000000    -1.697000000
C    -4.252000000    -4.129000000     0.105000000
O    -5.456000000    -4.365000000     0.755000000
C    -5.767000000    -3.813000000     1.956000000
C    -5.703000000    -2.462000000     2.238000000
H    -5.455000000    -1.693000000     1.510000000
C    -6.028000000    -4.696000000     3.008000000
H    -6.012000000    -5.726000000     2.662000000
C    -6.317000000    -4.265000000     4.338000000
H    -6.663000000    -4.983000000     5.077000000
C    -6.375000000    -2.861000000     4.527000000
H    -6.579000000    -2.506000000     5.534000000
C    -6.086000000    -2.004000000     3.503000000
O    -6.084000000    -0.641000000     3.661000000
C    -5.027000000     0.172000000     3.454000000
C    -5.278000000     1.401000000     2.778000000
H    -6.289000000     1.603000000     2.433000000
C    -4.201000000     2.345000000     2.607000000
O    -4.435000000     3.657000000     2.171000000
C    -3.658000000     4.772000000     2.409000000
C    -2.941000000     5.274000000     1.370000000
H    -3.005000000     4.861000000     0.367000000
C    -3.605000000     5.314000000     3.668000000
H    -4.330000000     5.097000000     4.448000000
C    -2.737000000     6.366000000     3.939000000
H    -2.758000000     6.834000000     4.920000000
C    -1.930000000     6.894000000     2.853000000
H    -1.273000000     7.737000000     3.049000000
C    -2.063000000     6.346000000     1.536000000
O    -1.422000000     6.881000000     0.388000000
C    -0.443000000     6.248000000    -0.361000000
C    -0.548000000     6.060000000    -1.696000000
H    -1.426000000     6.488000000    -2.174000000
C     0.226000000     5.079000000    -2.267000000
O    -0.019000000     4.781000000    -3.618000000
C     1.019000000     4.479000000    -4.493000000
C     1.013000000     3.289000000    -5.296000000
H     0.289000000     2.550000000    -4.961000000
C     2.063000000     5.390000000    -4.611000000
H     2.172000000     6.258000000    -3.967000000
C     2.999000000     5.237000000    -5.637000000
H     3.747000000     5.994000000    -5.859000000
C     2.958000000     4.030000000    -6.433000000
H     3.686000000     3.930000000    -7.233000000
C     2.062000000     3.012000000    -6.144000000
O     2.039000000     1.873000000    -6.951000000
C     1.906000000     0.696000000    -6.303000000
C     1.072000000    -0.297000000    -6.964000000
H     0.733000000    -0.139000000    -7.985000000
C     0.817000000    -1.433000000    -6.237000000
O    -0.100000000    -2.302000000    -6.790000000
C    -0.857000000    -3.302000000    -6.099000000
C    -0.472000000    -4.638000000    -6.145000000
H     0.325000000    -4.918000000    -6.829000000
C    -1.081000000    -5.492000000    -5.211000000
H    -0.846000000    -6.553000000    -5.190000000
C    -1.948000000    -5.048000000    -4.218000000
H    -2.410000000    -5.753000000    -3.533000000
C    -2.278000000    -3.715000000    -4.221000000
C    -1.791000000    -2.851000000    -5.207000000
H    -2.007000000    -1.791000000    -5.106000000
C    -0.331000000     0.800000000    -2.303000000
H     0.186000000     1.370000000    -3.071000000
C     0.291000000     0.453000000    -1.102000000
H     1.329000000     0.706000000    -0.898000000
C    -0.410000000    -0.154000000    -0.105000000
H     0.192000000    -0.432000000     0.824000000
C    -1.701000000    -0.640000000    -0.358000000
H    -2.298000000    -1.119000000     0.413000000
C    -2.330000000    -0.325000000    -1.585000000
H    -3.346000000    -0.679000000    -1.737000000
C    -1.653000000     0.379000000    -2.540000000
C    -2.443000000     0.884000000    -3.733000000
O    -3.538000000     0.459000000    -4.130000000
O    -2.048000000     1.898000000    -4.298000000
O    -3.775000000     3.364000000    -1.529000000
H    -4.156000000     3.237000000    -2.397000000
H    -3.022000000     2.774000000    -1.508000000
O    -2.554000000     2.672000000    -6.748000000
H    -2.449000000     3.611000000    -6.598000000
H    -2.341000000     2.270000000    -5.906000000
O    -2.563000000     5.240000000    -7.640000000
H    -1.834000000     5.295000000    -8.258000000
H    -3.308000000     4.961000000    -8.171000000
O    -6.677000000     2.546000000    -1.353000000
H    -5.815000000     2.684000000    -1.745000000
H    -7.167000000     2.061000000    -2.017000000
O    -3.177000000     4.516000000    -4.592000000
H    -3.749000000     3.816000000    -4.278000000
H    -2.304000000     4.124000000    -4.606000000
O    -8.211000000     1.525000000    -3.437000000
H    -8.751000000     2.249000000    -3.120000000
H    -7.938000000     1.796000000    -4.313000000
O    -2.860000000     6.883000000    -5.543000000
H    -3.110000000     6.355000000    -4.786000000
H    -2.686000000     6.245000000    -6.234000000
O    -7.435000000    -0.910000000    -2.218000000
H    -6.769000000    -1.008000000    -2.898000000
H    -7.982000000    -0.185000000    -2.521000000
O    -4.361000000     0.373000000    -6.741000000
H    -3.675000000     0.978000000    -7.024000000
H    -4.106000000     0.119000000    -5.854000000
O    -5.173000000     6.027000000    -1.840000000
H    -4.567000000     5.444000000    -1.384000000
H    -4.783000000     6.897000000    -1.749000000
O    -4.903000000     2.681000000    -3.694000000
H    -5.704000000     2.478000000    -4.177000000
H    -4.348000000     1.910000000    -3.815000000
O    -3.539000000    -2.016000000    -8.116000000
H    -4.033000000    -1.346000000    -7.644000000
H    -2.715000000    -1.586000000    -8.348000000
O    -1.855000000    -0.537000000    -9.807000000
H    -1.041000000    -0.491000000   -10.310000000
H    -1.975000000     0.349000000    -9.464000000
O    -5.893000000     5.572000000    -4.554000000
H    -4.968000000     5.813000000    -4.618000000
H    -6.056000000     5.495000000    -3.614000000
O    -6.575000000     2.003000000    -5.910000000
H    -6.013000000     1.229000000    -5.949000000
H    -6.370000000     2.489000000    -6.709000000
O    -3.903000000    -4.532000000    -7.112000000
H    -3.729000000    -3.596000000    -7.205000000
H    -4.412000000    -4.602000000    -6.304000000
O    -5.344000000    -1.457000000    -4.437000000
H    -4.824000000    -2.108000000    -3.966000000
H    -4.794000000    -0.674000000    -4.450000000
O    -1.921000000     2.353000000    -9.623000000
H    -1.421000000     3.140000000    -9.839000000
H    -2.012000000     2.380000000    -8.670000000
O    -6.775000000    -2.490000000    -6.545000000
H    -7.589000000    -2.000000000    -6.661000000
H    -6.257000000    -1.954000000    -5.944000000
