215
-1438.37120
C    -3.169000000     2.262000000     3.374000000
H    -2.377000000     3.004000000     3.444000000
C    -2.970000000     0.928000000     3.786000000
C    -4.019000000     0.041000000     3.622000000
H    -3.868000000    -0.996000000     3.910000000
C    -1.470000000     0.514000000     4.019000000
O    -0.690000000     1.493000000     4.629000000
H    -1.089000000     0.319000000     3.006000000
O    -1.366000000    -0.731000000     4.738000000
C    -0.493000000    -1.708000000     4.332000000
C    -0.997000000    -2.759000000     3.569000000
H    -2.052000000    -2.826000000     3.317000000
C    -0.097000000    -3.643000000     3.083000000
O    -0.680000000    -4.547000000     2.237000000
C     1.283000000    -3.544000000     3.186000000
C     2.169000000    -4.532000000     2.483000000
H     3.048000000    -4.731000000     3.100000000
C     2.492000000    -4.063000000     1.073000000
C     3.643000000    -3.324000000     0.803000000
H     4.268000000    -2.973000000     1.620000000
H     1.689000000    -5.501000000     2.334000000
C     1.718000000    -2.418000000     3.888000000
H     2.778000000    -2.216000000     4.021000000
C     0.864000000    -1.570000000     4.520000000
C     1.450000000    -0.394000000     5.330000000
H     2.369000000    -0.813000000     5.744000000
H     0.811000000    -0.063000000     6.152000000
C     1.621000000     0.812000000     4.468000000
C     2.901000000     1.094000000     3.939000000
H     3.714000000     0.427000000     4.215000000
C     0.564000000     1.666000000     4.124000000
C     0.771000000     2.710000000     3.201000000
H     0.068000000     3.483000000     2.901000000
C     2.057000000     2.883000000     2.695000000
O     2.233000000     3.961000000     1.877000000
C     2.191000000     3.641000000     0.493000000
C     1.279000000     4.566000000    -0.408000000
C     1.395000000     4.569000000    -1.792000000
H     2.099000000     3.895000000    -2.273000000
C     0.440000000     5.377000000     0.259000000
H     0.480000000     5.457000000     1.343000000
O     3.472000000     3.481000000    -0.090000000
H     1.679000000     2.671000000     0.406000000
C     3.139000000     2.118000000     3.035000000
C     4.463000000     2.243000000     2.324000000
H     5.183000000     1.836000000     3.036000000
H     4.776000000     3.279000000     2.178000000
C     4.430000000     1.531000000     0.937000000
C     4.757000000     0.154000000     0.860000000
H     5.011000000    -0.441000000     1.733000000
C     3.923000000     2.173000000    -0.160000000
C     4.016000000     1.549000000    -1.422000000
H     3.697000000     2.018000000    -2.349000000
C     4.463000000     0.251000000    -1.527000000
O     4.246000000    -0.314000000    -2.733000000
C     3.114000000    -1.241000000    -2.948000000
C     2.471000000    -1.049000000    -4.342000000
C     2.641000000     0.238000000    -4.934000000
H     3.330000000     1.032000000    -4.660000000
C     1.482000000    -1.879000000    -4.790000000
H     1.334000000    -2.806000000    -4.243000000
O     3.411000000    -2.632000000    -2.720000000
H     2.365000000    -1.003000000    -2.179000000
C     4.833000000    -0.502000000    -0.408000000
C     5.179000000    -1.990000000    -0.554000000
H     5.846000000    -2.045000000     0.308000000
H     5.795000000    -2.128000000    -1.445000000
C     3.987000000    -2.937000000    -0.474000000
C     3.120000000    -3.175000000    -1.490000000
C     2.004000000    -3.923000000    -1.276000000
H     1.318000000    -4.175000000    -2.081000000
C     1.697000000    -4.389000000     0.001000000
O     0.498000000    -5.068000000     0.192000000
C    -0.480000000    -4.280000000     0.815000000
H    -0.068000000    -3.266000000     0.703000000
C    -1.789000000    -4.258000000     0.137000000
C    -3.026000000    -4.405000000     0.828000000
H    -2.994000000    -4.472000000     1.912000000
C    -1.902000000    -4.083000000    -1.260000000
H    -1.061000000    -3.705000000    -1.836000000
C    -3.167000000    -4.073000000    -1.857000000
O    -3.133000000    -3.593000000    -3.152000000
C    -4.346000000    -4.166000000    -1.173000000
H    -5.274000000    -4.291000000    -1.725000000
C    -4.259000000    -4.318000000     0.149000000
O    -5.418000000    -4.442000000     0.796000000
C    -5.751000000    -3.737000000     1.878000000
C    -5.955000000    -2.371000000     1.876000000
H    -5.848000000    -1.756000000     0.986000000
C    -5.908000000    -4.420000000     3.074000000
H    -5.701000000    -5.486000000     3.124000000
C    -6.164000000    -3.791000000     4.266000000
H    -6.225000000    -4.404000000     5.162000000
C    -6.385000000    -2.414000000     4.296000000
H    -6.683000000    -1.913000000     5.214000000
C    -6.283000000    -1.688000000     3.084000000
O    -6.415000000    -0.326000000     3.017000000
C    -5.264000000     0.493000000     3.094000000
C    -5.425000000     1.810000000     2.673000000
H    -6.418000000     2.120000000     2.359000000
C    -4.365000000     2.740000000     2.735000000
O    -4.419000000     3.953000000     2.070000000
C    -3.597000000     5.012000000     2.309000000
C    -2.801000000     5.339000000     1.179000000
H    -2.889000000     4.778000000     0.251000000
C    -3.584000000     5.734000000     3.484000000
H    -4.259000000     5.389000000     4.263000000
C    -2.719000000     6.812000000     3.576000000
H    -2.538000000     7.399000000     4.472000000
C    -2.082000000     7.209000000     2.360000000
H    -1.555000000     8.160000000     2.363000000
C    -1.982000000     6.469000000     1.216000000
O    -1.371000000     6.909000000     0.089000000
C    -0.470000000     6.113000000    -0.507000000
C    -0.399000000     6.046000000    -1.891000000
H    -1.112000000     6.605000000    -2.491000000
C     0.578000000     5.346000000    -2.547000000
O     0.662000000     5.260000000    -3.958000000
C     1.741000000     4.684000000    -4.682000000
C     1.411000000     3.494000000    -5.300000000
H     0.485000000     2.976000000    -5.065000000
C     2.981000000     5.276000000    -4.871000000
H     3.133000000     6.200000000    -4.318000000
C     3.875000000     4.729000000    -5.712000000
H     4.773000000     5.297000000    -5.941000000
C     3.489000000     3.588000000    -6.470000000
H     4.174000000     3.250000000    -7.244000000
C     2.285000000     2.908000000    -6.224000000
O     2.070000000     1.739000000    -6.806000000
C     1.942000000     0.516000000    -6.151000000
C     1.105000000    -0.403000000    -6.722000000
H     0.685000000    -0.164000000    -7.696000000
C     0.932000000    -1.638000000    -6.086000000
O     0.011000000    -2.464000000    -6.559000000
C    -0.672000000    -3.454000000    -5.766000000
C    -0.209000000    -4.810000000    -5.870000000
H     0.623000000    -5.062000000    -6.523000000
C    -0.867000000    -5.825000000    -5.102000000
H    -0.570000000    -6.868000000    -5.026000000
C    -1.842000000    -5.371000000    -4.221000000
H    -2.242000000    -6.121000000    -3.543000000
C    -2.223000000    -4.047000000    -4.097000000
C    -1.671000000    -3.092000000    -4.930000000
H    -1.937000000    -2.049000000    -5.083000000
C    -0.060000000     0.545000000    -1.859000000
H     0.556000000     1.049000000    -2.600000000
C     0.520000000     0.178000000    -0.621000000
H     1.584000000     0.333000000    -0.462000000
C    -0.270000000    -0.394000000     0.374000000
H     0.032000000    -0.605000000     1.363000000
C    -1.614000000    -0.505000000     0.134000000
H    -2.275000000    -0.857000000     0.923000000
C    -2.158000000    -0.464000000    -1.155000000
H    -3.202000000    -0.750000000    -1.252000000
C    -1.346000000     0.180000000    -2.158000000
C    -1.949000000     0.583000000    -3.440000000
O    -3.088000000     0.282000000    -3.630000000
O    -1.450000000     1.454000000    -4.166000000
O    -4.629000000     6.291000000    -1.857000000
H    -3.781000000     6.300000000    -2.301000000
H    -4.939000000     5.390000000    -1.951000000
O    -1.249000000     1.718000000    -6.832000000
H    -2.105000000     1.346000000    -6.617000000
H    -0.825000000     1.848000000    -5.984000000
O    -2.055000000     4.407000000    -6.864000000
H    -2.300000000     4.347000000    -5.941000000
H    -1.639000000     3.567000000    -7.057000000
O    -5.627000000     3.645000000    -1.802000000
H    -5.414000000     2.955000000    -2.429000000
H    -6.266000000     3.244000000    -1.212000000
O    -2.371000000     4.067000000    -4.270000000
H    -3.201000000     3.594000000    -4.222000000
H    -1.707000000     3.407000000    -4.071000000
O    -8.214000000    -2.517000000    -6.130000000
H    -9.033000000    -2.041000000    -5.988000000
H    -7.534000000    -1.846000000    -6.068000000
O    -2.864000000     7.143000000    -4.422000000
H    -2.612000000     6.222000000    -4.492000000
H    -2.894000000     7.452000000    -5.327000000
O    -7.801000000     1.804000000    -4.150000000
H    -6.877000000     2.011000000    -4.010000000
H    -8.086000000     2.423000000    -4.822000000
O    -7.746000000    -2.464000000    -3.220000000
H    -6.984000000    -1.917000000    -3.404000000
H    -8.079000000    -2.711000000    -4.083000000
O    -3.623000000    -0.526000000    -6.680000000
H    -3.908000000     0.253000000    -7.158000000
H    -3.412000000    -0.205000000    -5.803000000
O     0.118000000    -2.025000000    -9.886000000
H    -0.364000000    -1.267000000    -9.553000000
H     0.726000000    -2.250000000    -9.182000000
O    -5.079000000     2.358000000    -4.213000000
H    -5.307000000     2.154000000    -5.120000000
H    -4.247000000     1.907000000    -4.068000000
O    -3.442000000    -3.221000000    -8.110000000
H    -3.392000000    -2.517000000    -7.463000000
H    -3.223000000    -2.800000000    -8.941000000
O    -3.984000000     2.148000000    -7.346000000
H    -3.361000000     2.823000000    -7.616000000
H    -4.770000000     2.328000000    -7.860000000
O    -6.114000000    -0.700000000    -7.335000000
H    -6.376000000    -1.318000000    -8.017000000
H    -5.227000000    -0.968000000    -7.096000000
O    -4.303000000     5.936000000    -7.513000000
H    -5.089000000     5.503000000    -7.182000000
H    -3.579000000     5.398000000    -7.193000000
O    -5.425000000    -1.195000000    -3.718000000
H    -4.656000000    -1.756000000    -3.621000000
H    -5.092000000    -0.307000000    -3.586000000
O    -1.350000000     0.565000000    -9.327000000
H    -1.640000000     1.333000000    -9.821000000
H    -1.376000000     0.845000000    -8.412000000
O    -6.976000000     1.287000000    -1.479000000
H    -7.320000000     0.551000000    -0.973000000
H    -7.471000000     1.268000000    -2.298000000
