215
-1477.16915
C    -2.578000000     2.611000000     4.215000000
H    -1.636000000     3.148000000     4.296000000
C    -2.458000000     1.245000000     4.016000000
C    -3.627000000     0.509000000     3.872000000
H    -3.561000000    -0.564000000     3.712000000
C    -1.120000000     0.553000000     3.899000000
O    -0.187000000     1.377000000     4.606000000
H    -0.880000000     0.395000000     2.837000000
O    -1.137000000    -0.718000000     4.510000000
C    -0.454000000    -1.763000000     3.923000000
C    -1.162000000    -2.682000000     3.106000000
H    -2.196000000    -2.397000000     2.932000000
C    -0.388000000    -3.665000000     2.492000000
O    -1.178000000    -4.434000000     1.611000000
C     0.900000000    -3.835000000     2.758000000
C     1.631000000    -4.980000000     1.997000000
H     2.416000000    -5.332000000     2.669000000
C     2.076000000    -4.408000000     0.666000000
C     3.374000000    -3.911000000     0.445000000
H     4.102000000    -3.940000000     1.252000000
H     0.946000000    -5.796000000     1.758000000
C     1.566000000    -2.980000000     3.627000000
H     2.631000000    -3.116000000     3.796000000
C     0.868000000    -1.957000000     4.245000000
C     1.579000000    -1.000000000     5.132000000
H     2.453000000    -1.515000000     5.537000000
H     0.979000000    -0.736000000     6.006000000
C     1.993000000     0.283000000     4.335000000
C     3.215000000     0.347000000     3.683000000
H     3.963000000    -0.439000000     3.736000000
C     1.173000000     1.411000000     4.231000000
C     1.571000000     2.591000000     3.564000000
H     0.920000000     3.461000000     3.544000000
C     2.792000000     2.575000000     2.876000000
O     2.958000000     3.615000000     2.007000000
C     2.569000000     3.215000000     0.685000000
C     1.564000000     4.222000000     0.058000000
C     1.456000000     4.198000000    -1.351000000
H     2.042000000     3.532000000    -1.979000000
C     0.753000000     5.017000000     0.767000000
H     0.820000000     5.113000000     1.848000000
O     3.732000000     2.935000000    -0.087000000
H     2.075000000     2.232000000     0.671000000
C     3.596000000     1.460000000     2.973000000
C     4.853000000     1.350000000     2.193000000
H     5.627000000     0.766000000     2.695000000
H     5.315000000     2.340000000     2.179000000
C     4.699000000     0.838000000     0.786000000
C     5.050000000    -0.476000000     0.523000000
H     5.348000000    -1.141000000     1.329000000
C     4.213000000     1.641000000    -0.255000000
C     4.026000000     1.048000000    -1.490000000
H     3.538000000     1.537000000    -2.330000000
C     4.401000000    -0.217000000    -1.727000000
O     4.164000000    -0.637000000    -3.000000000
C     2.956000000    -1.397000000    -3.186000000
C     2.255000000    -0.961000000    -4.465000000
C     2.485000000     0.284000000    -5.051000000
H     3.165000000     0.975000000    -4.559000000
C     1.401000000    -1.821000000    -5.154000000
H     1.153000000    -2.751000000    -4.650000000
O     3.094000000    -2.818000000    -3.129000000
H     2.282000000    -1.114000000    -2.363000000
C     4.881000000    -1.018000000    -0.735000000
C     5.062000000    -2.531000000    -0.977000000
H     5.802000000    -2.901000000    -0.265000000
H     5.620000000    -2.765000000    -1.886000000
C     3.773000000    -3.294000000    -0.790000000
C     2.881000000    -3.452000000    -1.930000000
C     1.618000000    -4.061000000    -1.740000000
H     0.910000000    -4.092000000    -2.564000000
C     1.227000000    -4.507000000    -0.488000000
O    -0.057000000    -5.034000000    -0.352000000
C    -0.993000000    -4.133000000     0.265000000
H    -0.599000000    -3.107000000     0.214000000
C    -2.348000000    -3.985000000    -0.412000000
C    -3.453000000    -3.607000000     0.283000000
H    -3.371000000    -3.413000000     1.349000000
C    -2.417000000    -3.984000000    -1.796000000
H    -1.520000000    -4.163000000    -2.383000000
C    -3.644000000    -3.759000000    -2.483000000
O    -3.716000000    -3.778000000    -3.862000000
C    -4.789000000    -3.477000000    -1.729000000
H    -5.688000000    -3.302000000    -2.315000000
C    -4.721000000    -3.348000000    -0.325000000
O    -5.884000000    -2.992000000     0.290000000
C    -5.999000000    -2.638000000     1.608000000
C    -6.006000000    -1.231000000     1.913000000
H    -5.939000000    -0.592000000     1.036000000
C    -6.115000000    -3.519000000     2.627000000
H    -6.134000000    -4.594000000     2.464000000
C    -6.181000000    -3.103000000     3.939000000
H    -6.231000000    -3.918000000     4.657000000
C    -6.101000000    -1.769000000     4.236000000
H    -6.056000000    -1.469000000     5.279000000
C    -5.993000000    -0.827000000     3.241000000
O    -5.992000000     0.458000000     3.632000000
C    -4.831000000     1.161000000     3.834000000
C    -4.903000000     2.558000000     3.965000000
H    -5.784000000     3.182000000     3.835000000
C    -3.775000000     3.293000000     4.234000000
O    -3.946000000     4.662000000     4.319000000
C    -2.976000000     5.523000000     3.865000000
C    -2.498000000     5.421000000     2.552000000
H    -3.063000000     4.806000000     1.856000000
C    -2.397000000     6.396000000     4.773000000
H    -2.662000000     6.381000000     5.827000000
C    -1.401000000     7.294000000     4.356000000
H    -0.963000000     8.048000000     5.005000000
C    -0.885000000     7.210000000     3.062000000
H    -0.014000000     7.741000000     2.686000000
C    -1.475000000     6.266000000     2.185000000
O    -1.233000000     6.411000000     0.823000000
C    -0.286000000     5.675000000     0.110000000
C    -0.392000000     5.686000000    -1.224000000
H    -1.227000000     6.170000000    -1.724000000
C     0.518000000     4.946000000    -1.996000000
O     0.193000000     4.723000000    -3.322000000
C     1.173000000     4.495000000    -4.246000000
C     1.020000000     3.369000000    -4.994000000
H     0.090000000     2.806000000    -4.983000000
C     2.281000000     5.374000000    -4.328000000
H     2.260000000     6.260000000    -3.698000000
C     3.288000000     4.994000000    -5.228000000
H     4.197000000     5.577000000    -5.352000000
C     3.086000000     3.980000000    -6.094000000
H     3.857000000     3.789000000    -6.836000000
C     1.984000000     3.127000000    -5.927000000
O     1.894000000     1.987000000    -6.711000000
C     1.752000000     0.722000000    -6.142000000
C     0.943000000    -0.188000000    -6.790000000
H     0.355000000     0.078000000    -7.665000000
C     0.637000000    -1.418000000    -6.218000000
O    -0.318000000    -2.260000000    -6.805000000
C    -0.912000000    -3.292000000    -6.132000000
C    -0.740000000    -4.593000000    -6.593000000
H     0.091000000    -4.759000000    -7.274000000
C    -1.485000000    -5.647000000    -6.058000000
H    -1.361000000    -6.686000000    -6.351000000
C    -2.498000000    -5.350000000    -5.123000000
H    -3.083000000    -6.169000000    -4.711000000
C    -2.616000000    -4.049000000    -4.628000000
C    -1.824000000    -3.026000000    -5.127000000
H    -2.047000000    -2.025000000    -4.767000000
C    -0.284000000     0.834000000    -2.100000000
H     0.208000000     1.367000000    -2.909000000
C     0.465000000     0.363000000    -1.002000000
H     1.534000000     0.555000000    -0.958000000
C    -0.182000000    -0.400000000    -0.024000000
H     0.356000000    -0.951000000     0.746000000
C    -1.561000000    -0.659000000    -0.083000000
H    -2.115000000    -1.152000000     0.712000000
C    -2.254000000    -0.010000000    -1.065000000
H    -3.335000000     0.037000000    -0.961000000
C    -1.693000000     0.733000000    -2.099000000
C    -2.551000000     1.320000000    -3.125000000
O    -3.671000000     1.554000000    -2.825000000
O    -2.120000000     1.555000000    -4.194000000
O    -5.398000000    -0.418000000    -3.068000000
H    -5.802000000    -0.684000000    -2.242000000
H    -4.671000000     0.149000000    -2.808000000
O    -1.712000000    -0.144000000    -9.165000000
H    -2.470000000     0.103000000    -8.636000000
H    -1.345000000     0.688000000    -9.462000000
O    -1.770000000     2.803000000     0.525000000
H    -1.188000000     2.223000000     0.033000000
H    -1.310000000     3.642000000     0.546000000
O    -2.642000000     3.769000000    -5.557000000
H    -3.566000000     3.609000000    -5.364000000
H    -2.170000000     3.153000000    -4.997000000
O    -7.405000000     1.078000000    -4.538000000
H    -6.992000000     0.215000000    -4.510000000
H    -6.711000000     1.666000000    -4.836000000
O    -5.126000000     2.818000000    -4.628000000
H    -4.386000000     2.451000000    -4.144000000
H    -5.568000000     3.385000000    -3.995000000
O    -5.978000000     6.105000000    -3.736000000
H    -6.836000000     6.398000000    -3.428000000
H    -5.396000000     6.244000000    -2.989000000
O    -3.538000000     0.671000000    -7.058000000
H    -4.163000000     1.343000000    -7.329000000
H    -3.122000000     1.033000000    -6.275000000
O    -4.489000000     6.238000000    -1.081000000
H    -5.030000000     6.459000000    -0.323000000
H    -4.362000000     5.292000000    -1.018000000
O    -4.358000000     3.516000000    -0.955000000
H    -3.755000000     3.520000000    -0.211000000
H    -4.000000000     2.858000000    -1.551000000
O    -1.666000000     6.456000000    -4.862000000
H    -2.011000000     5.578000000    -5.024000000
H    -2.282000000     6.844000000    -4.240000000
O    -5.759000000    -3.241000000    -7.446000000
H    -6.110000000    -2.573000000    -8.034000000
H    -5.509000000    -2.759000000    -6.657000000
O    -8.719000000     1.966000000     0.203000000
H    -9.380000000     2.164000000    -0.460000000
H    -7.891000000     1.963000000    -0.278000000
O    -6.258000000     2.291000000    -7.256000000
H    -7.143000000     2.074000000    -7.550000000
H    -6.356000000     3.124000000    -6.796000000
O    -5.514000000    -1.214000000    -5.667000000
H    -4.741000000    -0.880000000    -6.122000000
H    -5.362000000    -0.997000000    -4.747000000
O    -1.452000000     4.534000000    -7.898000000
H    -1.620000000     4.279000000    -6.990000000
H    -2.317000000     4.745000000    -8.251000000
O    -5.358000000    -0.833000000    -8.933000000
H    -6.176000000    -0.376000000    -8.735000000
H    -4.740000000    -0.512000000    -8.276000000
O    -6.381000000     1.610000000    -1.590000000
H    -5.712000000     2.292000000    -1.528000000
H    -6.404000000     1.381000000    -2.519000000
O    -6.896000000     5.086000000    -5.974000000
H    -7.071000000     6.024000000    -6.052000000
H    -6.534000000     4.982000000    -5.094000000
