215
-1463.47445
C    -2.712000000     2.647000000     3.854000000
H    -1.922000000     3.367000000     4.052000000
C    -2.396000000     1.287000000     3.946000000
C    -3.427000000     0.399000000     3.717000000
H    -3.248000000    -0.672000000     3.691000000
C    -1.015000000     0.796000000     4.075000000
O    -0.149000000     1.641000000     4.878000000
H    -0.565000000     0.688000000     3.077000000
O    -1.079000000    -0.470000000     4.665000000
C    -0.209000000    -1.348000000     4.102000000
C    -0.830000000    -2.377000000     3.352000000
H    -1.910000000    -2.334000000     3.237000000
C     0.048000000    -3.330000000     2.809000000
O    -0.485000000    -4.278000000     1.931000000
C     1.402000000    -3.327000000     3.044000000
C     2.291000000    -4.361000000     2.338000000
H     3.162000000    -4.549000000     2.971000000
C     2.713000000    -3.899000000     0.947000000
C     3.825000000    -3.076000000     0.714000000
H     4.497000000    -2.815000000     1.528000000
H     1.769000000    -5.317000000     2.267000000
C     1.970000000    -2.271000000     3.712000000
H     3.048000000    -2.169000000     3.809000000
C     1.164000000    -1.278000000     4.373000000
C     1.857000000    -0.266000000     5.226000000
H     2.831000000    -0.572000000     5.612000000
H     1.231000000     0.062000000     6.059000000
C     2.084000000     0.920000000     4.341000000
C     3.387000000     1.207000000     3.772000000
H     4.240000000     0.545000000     3.897000000
C     1.040000000     1.879000000     4.158000000
C     1.180000000     2.960000000     3.320000000
H     0.391000000     3.686000000     3.140000000
C     2.355000000     3.152000000     2.656000000
O     2.379000000     4.143000000     1.722000000
C     2.115000000     3.599000000     0.422000000
C     1.009000000     4.317000000    -0.386000000
C     0.633000000     3.871000000    -1.705000000
H     1.197000000     3.121000000    -2.253000000
C     0.108000000     5.149000000     0.348000000
H     0.336000000     5.458000000     1.365000000
O     3.360000000     3.545000000    -0.294000000
H     1.779000000     2.557000000     0.523000000
C     3.385000000     2.257000000     2.880000000
C     4.664000000     2.428000000     2.072000000
H     5.530000000     1.960000000     2.546000000
H     4.762000000     3.502000000     1.906000000
C     4.570000000     1.747000000     0.666000000
C     5.038000000     0.447000000     0.481000000
H     5.439000000    -0.164000000     1.286000000
C     4.013000000     2.394000000    -0.406000000
C     3.742000000     1.705000000    -1.579000000
H     3.402000000     2.229000000    -2.468000000
C     4.106000000     0.455000000    -1.777000000
O     3.837000000    -0.155000000    -2.988000000
C     2.782000000    -1.169000000    -3.104000000
C     1.905000000    -1.025000000    -4.364000000
C     1.996000000     0.168000000    -5.097000000
H     2.759000000     0.911000000    -4.878000000
C     0.845000000    -1.857000000    -4.579000000
H     0.707000000    -2.692000000    -3.896000000
O     3.312000000    -2.505000000    -2.945000000
H     2.070000000    -0.894000000    -2.312000000
C     4.800000000    -0.249000000    -0.779000000
C     5.274000000    -1.669000000    -0.942000000
H     6.184000000    -1.769000000    -0.346000000
H     5.613000000    -1.775000000    -1.974000000
C     4.105000000    -2.579000000    -0.606000000
C     3.306000000    -2.987000000    -1.662000000
C     2.258000000    -3.838000000    -1.447000000
H     1.667000000    -4.054000000    -2.334000000
C     1.925000000    -4.214000000    -0.184000000
O     0.655000000    -4.802000000     0.004000000
C    -0.410000000    -4.044000000     0.530000000
H    -0.141000000    -3.002000000     0.303000000
C    -1.708000000    -4.468000000    -0.153000000
C    -2.890000000    -4.007000000     0.472000000
H    -2.874000000    -3.466000000     1.415000000
C    -1.721000000    -5.037000000    -1.427000000
H    -0.821000000    -5.509000000    -1.815000000
C    -2.928000000    -5.264000000    -2.064000000
O    -3.004000000    -5.735000000    -3.338000000
C    -4.098000000    -4.855000000    -1.431000000
H    -5.032000000    -4.904000000    -1.984000000
C    -4.123000000    -4.244000000    -0.165000000
O    -5.319000000    -3.797000000     0.466000000
C    -5.381000000    -3.294000000     1.750000000
C    -5.700000000    -1.979000000     1.988000000
H    -5.880000000    -1.322000000     1.140000000
C    -5.185000000    -4.181000000     2.821000000
H    -5.051000000    -5.239000000     2.614000000
C    -5.225000000    -3.714000000     4.161000000
H    -5.128000000    -4.396000000     5.002000000
C    -5.339000000    -2.338000000     4.339000000
H    -5.345000000    -1.917000000     5.342000000
C    -5.684000000    -1.477000000     3.294000000
O    -5.853000000    -0.039000000     3.490000000
C    -4.807000000     0.822000000     3.662000000
C    -5.035000000     2.150000000     3.704000000
H    -6.067000000     2.494000000     3.694000000
C    -3.969000000     3.073000000     3.675000000
O    -4.264000000     4.485000000     3.731000000
C    -3.473000000     5.552000000     3.296000000
C    -2.939000000     5.508000000     2.035000000
H    -3.126000000     4.680000000     1.356000000
C    -3.373000000     6.651000000     4.118000000
H    -3.979000000     6.726000000     5.018000000
C    -2.617000000     7.782000000     3.746000000
H    -2.412000000     8.624000000     4.403000000
C    -1.968000000     7.734000000     2.437000000
H    -1.342000000     8.568000000     2.131000000
C    -2.124000000     6.628000000     1.600000000
O    -1.699000000     6.684000000     0.300000000
C    -0.988000000     5.681000000    -0.290000000
C    -1.206000000     5.407000000    -1.607000000
H    -2.001000000     5.976000000    -2.083000000
C    -0.372000000     4.580000000    -2.362000000
O    -0.711000000     4.256000000    -3.658000000
C     0.296000000     4.134000000    -4.628000000
C     0.241000000     2.978000000    -5.336000000
H    -0.649000000     2.356000000    -5.279000000
C     1.446000000     4.943000000    -4.673000000
H     1.563000000     5.736000000    -3.938000000
C     2.416000000     4.661000000    -5.667000000
H     3.346000000     5.220000000    -5.720000000
C     2.308000000     3.530000000    -6.440000000
H     3.137000000     3.205000000    -7.064000000
C     1.193000000     2.704000000    -6.296000000
O     1.265000000     1.485000000    -6.940000000
C     1.182000000     0.309000000    -6.246000000
C     0.298000000    -0.712000000    -6.680000000
H    -0.270000000    -0.595000000    -7.599000000
C     0.210000000    -1.851000000    -5.853000000
O    -0.672000000    -2.848000000    -6.243000000
C    -0.792000000    -4.073000000    -5.668000000
C     0.129000000    -5.118000000    -5.920000000
H     0.974000000    -4.901000000    -6.569000000
C    -0.041000000    -6.356000000    -5.339000000
H     0.689000000    -7.154000000    -5.451000000
C    -1.140000000    -6.590000000    -4.519000000
H    -1.310000000    -7.573000000    -4.088000000
C    -2.066000000    -5.572000000    -4.257000000
C    -1.865000000    -4.281000000    -4.756000000
H    -2.621000000    -3.509000000    -4.638000000
C    -0.896000000     0.500000000    -2.189000000
H    -0.506000000     1.072000000    -3.027000000
C    -0.185000000     0.324000000    -0.951000000
H     0.853000000     0.634000000    -0.855000000
C    -0.854000000    -0.234000000     0.100000000
H    -0.404000000    -0.396000000     1.063000000
C    -2.160000000    -0.739000000    -0.001000000
H    -2.718000000    -1.112000000     0.854000000
C    -2.821000000    -0.607000000    -1.213000000
H    -3.826000000    -1.013000000    -1.284000000
C    -2.169000000    -0.040000000    -2.370000000
C    -2.899000000    -0.086000000    -3.680000000
O    -3.960000000    -0.732000000    -3.751000000
O    -2.559000000     0.567000000    -4.651000000
O    -7.169000000    -2.771000000    -3.056000000
H    -7.019000000    -2.519000000    -3.967000000
H    -7.081000000    -1.954000000    -2.565000000
O    -1.769000000     1.346000000    -8.042000000
H    -2.580000000     0.911000000    -7.780000000
H    -1.106000000     0.993000000    -7.448000000
O    -7.024000000     2.788000000    -7.816000000
H    -7.130000000     2.371000000    -6.961000000
H    -7.844000000     2.605000000    -8.274000000
O    -3.249000000     2.572000000    -0.560000000
H    -2.572000000     1.896000000    -0.604000000
H    -3.128000000     3.084000000    -1.360000000
O    -4.205000000     2.700000000    -4.700000000
H    -4.055000000     3.443000000    -4.116000000
H    -3.495000000     2.090000000    -4.497000000
O    -7.286000000    -1.161000000    -7.003000000
H    -6.969000000    -0.351000000    -6.603000000
H    -6.594000000    -1.799000000    -6.833000000
O    -3.320000000     5.836000000    -4.934000000
H    -3.462000000     5.303000000    -5.716000000
H    -2.412000000     5.661000000    -4.687000000
O    -6.060000000    -0.032000000    -2.431000000
H    -5.210000000    -0.145000000    -2.856000000
H    -5.848000000     0.275000000    -1.550000000
O    -4.019000000     0.529000000    -6.840000000
H    -4.832000000     0.407000000    -6.349000000
H    -3.330000000     0.481000000    -6.177000000
O    -4.536000000     4.436000000    -2.377000000
H    -5.009000000     4.217000000    -1.573000000
H    -5.006000000     5.191000000    -2.732000000
O    -5.500000000     1.537000000     0.187000000
H    -5.739000000     2.055000000     0.956000000
H    -4.584000000     1.762000000     0.023000000
O    -4.722000000    -3.157000000    -8.215000000
H    -4.661000000    -2.693000000    -9.050000000
H    -4.655000000    -2.469000000    -7.553000000
O    -4.501000000     1.936000000    -9.168000000
H    -4.838000000     1.246000000    -8.597000000
H    -4.805000000     2.750000000    -8.766000000
O    -7.492000000     3.470000000    -3.691000000
H    -7.864000000     4.235000000    -4.131000000
H    -6.588000000     3.430000000    -4.003000000
O    -1.419000000    -1.876000000    -9.591000000
H    -1.254000000    -2.088000000    -8.672000000
H    -1.596000000    -2.721000000   -10.004000000
O    -5.205000000    -2.232000000    -5.441000000
H    -4.510000000    -2.888000000    -5.385000000
H    -5.026000000    -1.632000000    -4.717000000
O    -3.502000000     3.923000000    -7.167000000
H    -3.705000000     3.286000000    -6.481000000
H    -2.924000000     3.452000000    -7.767000000
O    -8.381000000     1.122000000    -2.469000000
H    -8.120000000     2.028000000    -2.637000000
H    -7.591000000     0.609000000    -2.640000000
O    -6.335000000     0.917000000    -5.209000000
H    -6.437000000     0.531000000    -4.340000000
H    -5.694000000     1.618000000    -5.086000000
