215
-1495.29771
C    -3.193000000     2.247000000     3.462000000
H    -2.476000000     3.047000000     3.628000000
C    -2.874000000     0.840000000     3.564000000
C    -3.905000000    -0.060000000     3.267000000
H    -3.736000000    -1.132000000     3.315000000
C    -1.435000000     0.337000000     3.769000000
O    -0.814000000     1.359000000     4.559000000
H    -0.929000000     0.270000000     2.794000000
O    -1.481000000    -0.935000000     4.478000000
C    -0.618000000    -1.882000000     4.073000000
C    -1.154000000    -2.819000000     3.204000000
H    -2.226000000    -2.871000000     3.032000000
C    -0.321000000    -3.775000000     2.697000000
O    -0.854000000    -4.554000000     1.711000000
C     1.051000000    -3.691000000     2.873000000
C     2.034000000    -4.652000000     2.221000000
H     2.982000000    -4.696000000     2.761000000
C     2.376000000    -4.224000000     0.822000000
C     3.590000000    -3.528000000     0.735000000
H     4.235000000    -3.395000000     1.600000000
H     1.627000000    -5.665000000     2.209000000
C     1.554000000    -2.747000000     3.757000000
H     2.598000000    -2.696000000     4.055000000
C     0.681000000    -1.894000000     4.355000000
C     1.195000000    -0.715000000     5.284000000
H     2.073000000    -1.057000000     5.837000000
H     0.432000000    -0.362000000     5.980000000
C     1.560000000     0.568000000     4.506000000
C     2.782000000     0.837000000     4.042000000
H     3.534000000     0.058000000     4.134000000
C     0.561000000     1.540000000     4.292000000
C     0.848000000     2.695000000     3.592000000
H     0.121000000     3.502000000     3.552000000
C     2.132000000     2.882000000     3.106000000
O     2.292000000     3.901000000     2.218000000
C     2.239000000     3.584000000     0.819000000
C     1.433000000     4.648000000     0.080000000
C     1.834000000     4.987000000    -1.190000000
H     2.778000000     4.555000000    -1.513000000
C     0.214000000     5.043000000     0.565000000
H    -0.031000000     4.678000000     1.559000000
O     3.552000000     3.416000000     0.302000000
H     1.719000000     2.622000000     0.700000000
C     3.071000000     1.941000000     3.298000000
C     4.439000000     2.017000000     2.685000000
H     5.198000000     1.598000000     3.349000000
H     4.667000000     3.082000000     2.598000000
C     4.560000000     1.418000000     1.299000000
C     5.013000000     0.119000000     1.005000000
H     5.375000000    -0.359000000     1.912000000
C     4.078000000     2.148000000     0.140000000
C     4.248000000     1.637000000    -1.150000000
H     4.019000000     2.264000000    -2.008000000
C     4.618000000     0.328000000    -1.283000000
O     4.374000000    -0.167000000    -2.556000000
C     3.110000000    -0.917000000    -2.760000000
C     2.387000000    -0.507000000    -4.038000000
C     2.522000000     0.730000000    -4.656000000
H     3.158000000     1.448000000    -4.145000000
C     1.486000000    -1.372000000    -4.624000000
H     1.225000000    -2.331000000    -4.184000000
O     3.295000000    -2.360000000    -2.733000000
H     2.424000000    -0.662000000    -1.938000000
C     5.009000000    -0.509000000    -0.241000000
C     5.201000000    -2.035000000    -0.484000000
H     5.935000000    -2.468000000     0.198000000
H     5.698000000    -2.189000000    -1.444000000
C     3.904000000    -2.904000000    -0.427000000
C     3.106000000    -3.076000000    -1.574000000
C     1.995000000    -3.901000000    -1.537000000
H     1.353000000    -4.000000000    -2.409000000
C     1.579000000    -4.480000000    -0.325000000
O     0.399000000    -5.076000000    -0.136000000
C    -0.643000000    -4.211000000     0.325000000
H    -0.369000000    -3.147000000     0.291000000
C    -1.959000000    -4.479000000    -0.434000000
C    -3.221000000    -4.435000000     0.161000000
H    -3.251000000    -4.298000000     1.239000000
C    -1.883000000    -4.709000000    -1.856000000
H    -0.895000000    -4.783000000    -2.302000000
C    -3.058000000    -4.887000000    -2.583000000
O    -3.079000000    -4.947000000    -4.017000000
C    -4.307000000    -4.749000000    -1.955000000
H    -5.181000000    -4.881000000    -2.588000000
C    -4.377000000    -4.580000000    -0.563000000
O    -5.642000000    -4.543000000    -0.010000000
C    -5.900000000    -3.882000000     1.170000000
C    -5.770000000    -2.477000000     1.297000000
H    -5.429000000    -1.910000000     0.434000000
C    -6.515000000    -4.617000000     2.171000000
H    -6.708000000    -5.668000000     1.969000000
C    -6.829000000    -4.002000000     3.422000000
H    -7.342000000    -4.524000000     4.226000000
C    -6.666000000    -2.604000000     3.573000000
H    -7.064000000    -2.076000000     4.436000000
C    -6.213000000    -1.888000000     2.443000000
O    -6.246000000    -0.514000000     2.537000000
C    -5.221000000     0.340000000     2.928000000
C    -5.473000000     1.732000000     2.900000000
H    -6.442000000     2.131000000     2.610000000
C    -4.523000000     2.669000000     3.176000000
O    -4.862000000     4.004000000     3.156000000
C    -4.020000000     5.062000000     2.866000000
C    -3.334000000     5.167000000     1.668000000
H    -3.322000000     4.400000000     0.898000000
C    -3.801000000     6.049000000     3.839000000
H    -4.386000000     5.918000000     4.746000000
C    -2.979000000     7.142000000     3.613000000
H    -2.859000000     7.945000000     4.335000000
C    -2.220000000     7.205000000     2.418000000
H    -1.549000000     8.026000000     2.176000000
C    -2.409000000     6.195000000     1.472000000
O    -1.826000000     6.310000000     0.259000000
C    -0.668000000     5.814000000    -0.228000000
C    -0.241000000     6.240000000    -1.507000000
H    -0.951000000     6.809000000    -2.103000000
C     1.045000000     5.839000000    -1.986000000
O     1.354000000     6.143000000    -3.310000000
C     2.141000000     5.298000000    -4.085000000
C     1.616000000     4.183000000    -4.732000000
H     0.590000000     3.851000000    -4.596000000
C     3.493000000     5.518000000    -4.120000000
H     3.866000000     6.400000000    -3.605000000
C     4.390000000     4.759000000    -4.932000000
H     5.374000000     5.188000000    -5.102000000
C     3.806000000     3.770000000    -5.722000000
H     4.455000000     3.218000000    -6.396000000
C     2.427000000     3.448000000    -5.592000000
O     1.908000000     2.334000000    -6.255000000
C     1.794000000     1.113000000    -5.766000000
C     0.868000000     0.220000000    -6.316000000
H     0.194000000     0.573000000    -7.093000000
C     0.728000000    -1.036000000    -5.799000000
O    -0.359000000    -1.771000000    -6.224000000
C    -0.515000000    -3.031000000    -5.748000000
C     0.505000000    -3.977000000    -5.958000000
H     1.398000000    -3.723000000    -6.524000000
C     0.273000000    -5.282000000    -5.502000000
H     0.965000000    -6.059000000    -5.816000000
C    -0.931000000    -5.612000000    -4.822000000
H    -1.098000000    -6.648000000    -4.539000000
C    -1.921000000    -4.674000000    -4.679000000
C    -1.710000000    -3.411000000    -5.137000000
H    -2.449000000    -2.654000000    -4.888000000
C    -0.073000000     0.615000000    -1.957000000
H     0.356000000     1.152000000    -2.799000000
C     0.584000000     0.625000000    -0.759000000
H     1.531000000     1.155000000    -0.695000000
C     0.063000000    -0.026000000     0.301000000
H     0.544000000    -0.067000000     1.286000000
C    -1.101000000    -0.756000000     0.174000000
H    -1.536000000    -1.164000000     1.083000000
C    -1.750000000    -0.796000000    -1.043000000
H    -2.706000000    -1.309000000    -1.109000000
C    -1.229000000    -0.030000000    -2.102000000
C    -2.022000000     0.086000000    -3.399000000
O    -3.107000000    -0.518000000    -3.488000000
O    -1.731000000     0.845000000    -4.308000000
O    -4.527000000     5.557000000    -3.008000000
H    -3.692000000     5.671000000    -3.461000000
H    -4.387000000     4.808000000    -2.429000000
O    -2.823000000     1.395000000    -6.622000000
H    -3.470000000     0.735000000    -6.373000000
H    -2.162000000     1.354000000    -5.931000000
O    -8.097000000    -0.297000000    -3.346000000
H    -8.417000000     0.566000000    -3.610000000
H    -7.144000000    -0.220000000    -3.380000000
O    -3.902000000     2.740000000    -1.506000000
H    -3.927000000     2.634000000    -0.555000000
H    -4.383000000     1.985000000    -1.844000000
O    -1.864000000     3.382000000    -3.308000000
H    -2.523000000     2.976000000    -2.745000000
H    -1.439000000     2.645000000    -3.748000000
O    -7.931000000    -2.279000000    -5.385000000
H    -8.074000000    -1.971000000    -4.490000000
H    -7.380000000    -1.606000000    -5.785000000
O    -2.426000000     6.138000000    -4.538000000
H    -2.070000000     5.308000000    -4.223000000
H    -1.796000000     6.436000000    -5.194000000
O    -8.187000000    -2.637000000    -1.909000000
H    -7.368000000    -2.517000000    -2.389000000
H    -8.642000000    -1.799000000    -1.999000000
O    -4.382000000    -0.853000000    -5.904000000
H    -3.701000000    -1.307000000    -6.402000000
H    -4.052000000    -0.840000000    -5.006000000
O    -5.136000000     1.041000000    -3.276000000
H    -5.059000000     1.815000000    -3.833000000
H    -4.338000000     0.542000000    -3.448000000
O    -3.791000000    -4.574000000    -7.476000000
H    -4.332000000    -4.654000000    -6.690000000
H    -3.795000000    -3.638000000    -7.676000000
O    -3.468000000    -2.037000000    -8.249000000
H    -2.564000000    -1.839000000    -8.493000000
H    -3.994000000    -1.658000000    -8.953000000
O    -5.758000000     2.842000000    -5.762000000
H    -5.011000000     3.440000000    -5.752000000
H    -5.610000000     2.287000000    -6.528000000
O    -6.651000000    -0.435000000    -7.005000000
H    -5.860000000    -0.731000000    -6.555000000
H    -6.340000000     0.218000000    -7.632000000
O     0.728000000     2.888000000    -8.913000000
H     0.013000000     2.252000000    -8.888000000
H     1.405000000     2.509000000    -8.352000000
O    -5.615000000    -1.834000000    -3.327000000
H    -5.472000000    -2.692000000    -3.726000000
H    -4.736000000    -1.472000000    -3.216000000
O    -1.596000000     0.776000000    -9.005000000
H    -2.399000000     1.060000000    -9.442000000
H    -1.781000000     0.881000000    -8.072000000
O    -8.365000000     2.579000000    -4.270000000
H    -8.978000000     2.896000000    -4.933000000
H    -7.519000000     2.555000000    -4.718000000
O    -5.808000000    -4.023000000    -5.266000000
H    -6.317000000    -4.822000000    -5.130000000
H    -6.455000000    -3.368000000    -5.528000000
