215
-1443.22013
C    -2.613000000     2.040000000     3.893000000
H    -1.784000000     2.582000000     4.341000000
C    -2.563000000     0.616000000     3.691000000
C    -3.751000000    -0.055000000     3.388000000
H    -3.757000000    -1.141000000     3.340000000
C    -1.339000000    -0.244000000     3.933000000
O    -0.413000000     0.454000000     4.794000000
H    -0.848000000    -0.403000000     2.962000000
O    -1.545000000    -1.601000000     4.541000000
C    -0.753000000    -2.612000000     3.928000000
C    -1.310000000    -3.442000000     2.925000000
H    -2.384000000    -3.537000000     2.788000000
C    -0.493000000    -4.123000000     2.041000000
O    -1.140000000    -4.856000000     1.083000000
C     0.871000000    -4.163000000     2.304000000
C     1.704000000    -5.198000000     1.373000000
H     2.607000000    -5.557000000     1.870000000
C     2.065000000    -4.573000000     0.069000000
C     3.263000000    -3.807000000     0.083000000
H     3.807000000    -3.670000000     1.014000000
H     1.173000000    -6.151000000     1.323000000
C     1.511000000    -3.385000000     3.239000000
H     2.588000000    -3.390000000     3.389000000
C     0.677000000    -2.629000000     4.118000000
C     1.383000000    -1.736000000     5.144000000
H     2.161000000    -2.362000000     5.585000000
H     0.735000000    -1.531000000     5.999000000
C     1.820000000    -0.455000000     4.560000000
C     3.110000000    -0.336000000     3.974000000
H     3.863000000    -1.112000000     4.079000000
C     0.944000000     0.650000000     4.418000000
C     1.335000000     1.828000000     3.759000000
H     0.623000000     2.581000000     3.431000000
C     2.581000000     1.901000000     3.195000000
O     2.880000000     3.052000000     2.535000000
C     2.672000000     3.058000000     1.125000000
C     1.842000000     4.244000000     0.690000000
C     1.541000000     4.421000000    -0.683000000
H     1.997000000     3.765000000    -1.421000000
C     1.143000000     5.136000000     1.536000000
H     1.470000000     5.265000000     2.564000000
O     3.988000000     2.980000000     0.481000000
H     2.026000000     2.230000000     0.798000000
C     3.484000000     0.828000000     3.312000000
C     4.771000000     0.979000000     2.586000000
H     5.623000000     0.468000000     3.038000000
H     5.195000000     1.984000000     2.527000000
C     4.630000000     0.713000000     1.085000000
C     4.780000000    -0.626000000     0.673000000
H     4.984000000    -1.377000000     1.432000000
C     4.311000000     1.714000000     0.099000000
C     4.334000000     1.372000000    -1.271000000
H     4.025000000     2.146000000    -1.969000000
C     4.614000000     0.057000000    -1.619000000
O     4.342000000    -0.415000000    -2.895000000
C     3.099000000    -1.005000000    -3.212000000
C     2.425000000    -0.302000000    -4.380000000
C     2.609000000     1.045000000    -4.708000000
H     3.271000000     1.713000000    -4.163000000
C     1.554000000    -1.082000000    -5.127000000
H     1.405000000    -2.144000000    -4.952000000
O     3.198000000    -2.455000000    -3.328000000
H     2.518000000    -0.824000000    -2.295000000
C     4.851000000    -0.985000000    -0.645000000
C     4.953000000    -2.456000000    -1.020000000
H     5.558000000    -2.922000000    -0.240000000
H     5.466000000    -2.634000000    -1.967000000
C     3.643000000    -3.176000000    -1.080000000
C     2.870000000    -3.181000000    -2.235000000
C     1.699000000    -3.901000000    -2.251000000
H     1.073000000    -3.902000000    -3.139000000
C     1.280000000    -4.658000000    -1.121000000
O    -0.043000000    -5.167000000    -0.997000000
C    -0.972000000    -4.383000000    -0.208000000
H    -0.570000000    -3.360000000    -0.164000000
C    -2.335000000    -4.123000000    -0.889000000
C    -3.580000000    -3.935000000    -0.239000000
H    -3.637000000    -4.003000000     0.844000000
C    -2.306000000    -4.017000000    -2.283000000
H    -1.348000000    -4.122000000    -2.786000000
C    -3.476000000    -3.575000000    -3.000000000
O    -3.429000000    -3.319000000    -4.359000000
C    -4.639000000    -3.270000000    -2.310000000
H    -5.495000000    -2.933000000    -2.888000000
C    -4.707000000    -3.500000000    -0.926000000
O    -5.985000000    -3.535000000    -0.354000000
C    -6.190000000    -3.063000000     0.901000000
C    -5.930000000    -1.705000000     1.209000000
H    -5.494000000    -0.963000000     0.545000000
C    -6.744000000    -3.910000000     1.857000000
H    -7.053000000    -4.901000000     1.534000000
C    -7.036000000    -3.511000000     3.139000000
H    -7.384000000    -4.191000000     3.912000000
C    -6.811000000    -2.167000000     3.419000000
H    -6.992000000    -1.915000000     4.461000000
C    -6.331000000    -1.259000000     2.430000000
O    -6.118000000     0.036000000     2.812000000
C    -4.867000000     0.654000000     3.131000000
C    -4.927000000     2.014000000     3.321000000
H    -5.875000000     2.502000000     3.110000000
C    -3.790000000     2.703000000     3.707000000
O    -3.817000000     4.043000000     4.037000000
C    -2.761000000     5.004000000     4.143000000
C    -2.117000000     5.379000000     2.978000000
H    -2.398000000     4.890000000     2.049000000
C    -2.549000000     5.677000000     5.354000000
H    -3.118000000     5.331000000     6.214000000
C    -1.649000000     6.729000000     5.401000000
H    -1.437000000     7.250000000     6.331000000
C    -0.925000000     7.046000000     4.246000000
H    -0.134000000     7.791000000     4.242000000
C    -1.195000000     6.390000000     3.061000000
O    -0.485000000     6.854000000     1.988000000
C     0.168000000     6.056000000     1.055000000
C    -0.168000000     6.043000000    -0.262000000
H    -0.893000000     6.768000000    -0.624000000
C     0.438000000     5.150000000    -1.106000000
O     0.125000000     5.235000000    -2.474000000
C     1.065000000     5.198000000    -3.475000000
C     1.287000000     4.048000000    -4.214000000
H     0.697000000     3.151000000    -4.046000000
C     1.746000000     6.382000000    -3.746000000
H     1.469000000     7.347000000    -3.330000000
C     2.739000000     6.350000000    -4.736000000
H     3.366000000     7.223000000    -4.897000000
C     2.903000000     5.215000000    -5.536000000
H     3.603000000     5.247000000    -6.367000000
C     2.189000000     4.024000000    -5.315000000
O     2.295000000     2.924000000    -6.185000000
C     2.007000000     1.579000000    -5.800000000
C     1.161000000     0.778000000    -6.546000000
H     0.663000000     1.267000000    -7.380000000
C     0.898000000    -0.447000000    -6.106000000
O     0.000000000    -1.186000000    -6.931000000
C    -0.639000000    -2.326000000    -6.479000000
C    -0.087000000    -3.618000000    -6.714000000
H     0.835000000    -3.635000000    -7.291000000
C    -0.697000000    -4.806000000    -6.296000000
H    -0.388000000    -5.812000000    -6.567000000
C    -1.890000000    -4.700000000    -5.592000000
H    -2.353000000    -5.617000000    -5.237000000
C    -2.382000000    -3.431000000    -5.194000000
C    -1.767000000    -2.268000000    -5.655000000
H    -2.038000000    -1.310000000    -5.218000000
C    -0.132000000     0.808000000    -1.689000000
H     0.428000000     1.430000000    -2.383000000
C     0.582000000     0.354000000    -0.603000000
H     1.578000000     0.731000000    -0.386000000
C    -0.024000000    -0.500000000     0.276000000
H     0.516000000    -0.811000000     1.154000000
C    -1.400000000    -0.806000000     0.043000000
H    -1.815000000    -1.522000000     0.748000000
C    -2.070000000    -0.356000000    -1.078000000
H    -3.045000000    -0.717000000    -1.394000000
C    -1.436000000     0.529000000    -1.952000000
C    -2.140000000     1.048000000    -3.174000000
O    -3.350000000     1.223000000    -3.040000000
O    -1.519000000     1.307000000    -4.196000000
O    -5.667000000     0.654000000    -2.620000000
H    -5.749000000     1.037000000    -1.746000000
H    -4.783000000     0.889000000    -2.902000000
O    -2.391000000    -1.235000000    -9.215000000
H    -2.535000000    -0.563000000    -8.548000000
H    -2.574000000    -0.793000000   -10.044000000
O    -2.406000000     2.628000000     0.465000000
H    -2.554000000     1.994000000     1.167000000
H    -1.700000000     2.248000000    -0.057000000
O    -2.077000000     3.557000000    -5.567000000
H    -2.155000000     4.042000000    -4.746000000
H    -1.853000000     2.666000000    -5.299000000
O    -8.481000000     1.803000000    -3.455000000
H    -8.584000000     2.511000000    -2.819000000
H    -7.739000000     1.294000000    -3.130000000
O    -4.389000000     0.725000000    -5.422000000
H    -3.823000000     0.804000000    -4.653000000
H    -4.906000000     1.531000000    -5.422000000
O    -3.881000000     3.881000000    -3.003000000
H    -4.315000000     3.812000000    -2.152000000
H    -3.461000000     3.030000000    -3.127000000
O    -2.673000000     0.683000000    -7.291000000
H    -3.367000000     0.497000000    -6.659000000
H    -1.882000000     0.768000000    -6.760000000
O    -3.255000000     6.436000000    -3.601000000
H    -3.589000000     6.908000000    -2.838000000
H    -3.578000000     5.542000000    -3.489000000
O    -4.625000000     4.066000000    -0.228000000
H    -3.911000000     3.588000000     0.194000000
H    -4.324000000     4.974000000    -0.253000000
O    -1.022000000     7.217000000    -5.123000000
H    -0.317000000     6.570000000    -5.111000000
H    -1.634000000     6.917000000    -4.451000000
O    -6.027000000     1.736000000    -0.089000000
H    -5.580000000     2.568000000     0.070000000
H    -6.854000000     1.813000000     0.387000000
O    -5.876000000    -1.587000000    -6.768000000
H    -5.276000000    -1.407000000    -6.044000000
H    -6.619000000    -1.003000000    -6.614000000
O    -0.925000000     2.255000000    -9.718000000
H    -0.068000000     2.678000000    -9.666000000
H    -0.840000000     1.474000000    -9.170000000
O    -0.347000000     5.397000000    -7.363000000
H    -1.257000000     5.112000000    -7.279000000
H     0.163000000     4.589000000    -7.313000000
O    -7.464000000    -0.806000000    -4.341000000
H    -7.985000000    -0.014000000    -4.473000000
H    -6.695000000    -0.509000000    -3.855000000
O    -3.039000000     5.180000000    -7.655000000
H    -2.957000000     4.760000000    -8.512000000
H    -3.211000000     4.458000000    -7.050000000
O    -5.286000000     2.331000000    -7.424000000
H    -4.410000000     2.262000000    -7.046000000
H    -5.237000000     1.827000000    -8.237000000
O    -6.820000000     4.528000000    -6.093000000
H    -6.170000000     5.215000000    -5.946000000
H    -6.368000000     3.882000000    -6.636000000
