215
-1454.34047
C    -2.505000000     2.399000000     3.988000000
H    -1.587000000     2.946000000     4.186000000
C    -2.559000000     1.017000000     3.886000000
C    -3.668000000     0.433000000     3.275000000
H    -3.685000000    -0.580000000     2.880000000
C    -1.253000000     0.248000000     4.051000000
O    -0.450000000     0.861000000     5.064000000
H    -0.691000000     0.168000000     3.108000000
O    -1.489000000    -1.052000000     4.598000000
C    -0.821000000    -2.043000000     4.024000000
C    -1.511000000    -2.805000000     3.146000000
H    -2.577000000    -2.733000000     2.946000000
C    -0.792000000    -3.682000000     2.383000000
O    -1.500000000    -4.312000000     1.398000000
C     0.542000000    -3.994000000     2.619000000
C     1.251000000    -5.063000000     1.789000000
H     2.072000000    -5.525000000     2.341000000
C     1.763000000    -4.538000000     0.472000000
C     3.047000000    -3.934000000     0.414000000
H     3.632000000    -3.996000000     1.328000000
H     0.589000000    -5.916000000     1.628000000
C     1.196000000    -3.293000000     3.627000000
H     2.188000000    -3.663000000     3.872000000
C     0.540000000    -2.226000000     4.313000000
C     1.339000000    -1.367000000     5.341000000
H     2.230000000    -1.925000000     5.633000000
H     0.769000000    -1.199000000     6.257000000
C     1.724000000    -0.035000000     4.651000000
C     2.978000000    -0.027000000     4.050000000
H     3.678000000    -0.842000000     4.217000000
C     0.860000000     1.048000000     4.629000000
C     1.250000000     2.162000000     3.906000000
H     0.633000000     3.057000000     3.883000000
C     2.506000000     2.142000000     3.156000000
O     2.853000000     3.184000000     2.316000000
C     2.608000000     2.937000000     0.926000000
C     1.829000000     4.115000000     0.327000000
C     1.668000000     4.132000000    -1.015000000
H     2.230000000     3.429000000    -1.625000000
C     1.128000000     5.054000000     1.085000000
H     1.305000000     5.096000000     2.157000000
O     3.836000000     2.735000000     0.149000000
H     1.978000000     2.043000000     0.808000000
C     3.325000000     1.040000000     3.235000000
C     4.648000000     0.998000000     2.558000000
H     5.263000000     0.233000000     3.037000000
H     5.140000000     1.964000000     2.688000000
C     4.582000000     0.597000000     1.092000000
C     4.876000000    -0.738000000     0.879000000
H     5.161000000    -1.360000000     1.724000000
C     4.260000000     1.482000000     0.071000000
C     4.333000000     0.979000000    -1.210000000
H     4.226000000     1.595000000    -2.099000000
C     4.455000000    -0.380000000    -1.441000000
O     4.367000000    -0.797000000    -2.754000000
C     3.042000000    -1.333000000    -3.156000000
C     2.527000000    -0.845000000    -4.533000000
C     2.522000000     0.560000000    -4.865000000
H     2.931000000     1.272000000    -4.153000000
C     1.708000000    -1.680000000    -5.293000000
H     1.491000000    -2.685000000    -4.941000000
O     3.164000000    -2.755000000    -3.096000000
H     2.231000000    -0.926000000    -2.535000000
C     4.818000000    -1.275000000    -0.398000000
C     4.978000000    -2.740000000    -0.657000000
H     5.640000000    -3.153000000     0.107000000
H     5.533000000    -2.896000000    -1.584000000
C     3.584000000    -3.381000000    -0.795000000
C     2.724000000    -3.397000000    -1.933000000
C     1.403000000    -3.852000000    -1.864000000
H     0.870000000    -3.954000000    -2.806000000
C     0.907000000    -4.318000000    -0.615000000
O    -0.393000000    -4.776000000    -0.583000000
C    -1.231000000    -3.847000000     0.051000000
H    -0.687000000    -2.892000000     0.090000000
C    -2.542000000    -3.698000000    -0.786000000
C    -3.814000000    -3.704000000    -0.177000000
H    -3.871000000    -4.026000000     0.859000000
C    -2.418000000    -3.314000000    -2.170000000
H    -1.471000000    -3.190000000    -2.688000000
C    -3.633000000    -2.913000000    -2.859000000
O    -3.542000000    -2.517000000    -4.140000000
C    -4.856000000    -2.843000000    -2.156000000
H    -5.708000000    -2.600000000    -2.785000000
C    -4.946000000    -3.265000000    -0.851000000
O    -6.181000000    -3.240000000    -0.307000000
C    -6.417000000    -2.649000000     0.927000000
C    -6.100000000    -1.309000000     1.166000000
H    -5.689000000    -0.707000000     0.359000000
C    -6.832000000    -3.420000000     2.029000000
H    -7.078000000    -4.470000000     1.891000000
C    -7.045000000    -2.851000000     3.326000000
H    -7.522000000    -3.399000000     4.134000000
C    -6.623000000    -1.513000000     3.491000000
H    -6.703000000    -1.048000000     4.470000000
C    -6.135000000    -0.780000000     2.438000000
O    -5.869000000     0.575000000     2.511000000
C    -4.787000000     1.195000000     3.073000000
C    -4.819000000     2.574000000     3.270000000
H    -5.780000000     3.047000000     3.086000000
C    -3.648000000     3.186000000     3.686000000
O    -3.696000000     4.507000000     3.967000000
C    -2.622000000     5.339000000     3.814000000
C    -2.081000000     5.737000000     2.560000000
H    -2.425000000     5.451000000     1.569000000
C    -1.994000000     5.847000000     4.973000000
H    -2.577000000     5.836000000     5.891000000
C    -0.843000000     6.647000000     4.901000000
H    -0.515000000     7.248000000     5.745000000
C    -0.351000000     7.021000000     3.695000000
H     0.491000000     7.697000000     3.578000000
C    -0.925000000     6.523000000     2.527000000
O    -0.485000000     6.895000000     1.270000000
C     0.210000000     5.956000000     0.465000000
C     0.019000000     5.870000000    -0.892000000
H    -0.736000000     6.540000000    -1.295000000
C     0.788000000     5.056000000    -1.660000000
O     0.631000000     4.996000000    -3.019000000
C     1.609000000     4.611000000    -3.891000000
C     1.278000000     3.674000000    -4.893000000
H     0.259000000     3.295000000    -4.910000000
C     2.963000000     4.985000000    -3.752000000
H     3.298000000     5.587000000    -2.911000000
C     3.915000000     4.453000000    -4.617000000
H     4.961000000     4.744000000    -4.569000000
C     3.569000000     3.546000000    -5.564000000
H     4.274000000     3.096000000    -6.259000000
C     2.260000000     3.222000000    -5.747000000
O     2.041000000     2.160000000    -6.599000000
C     1.988000000     0.982000000    -6.079000000
C     1.201000000     0.076000000    -6.823000000
H     0.723000000     0.425000000    -7.735000000
C     1.072000000    -1.226000000    -6.425000000
O     0.225000000    -2.051000000    -7.149000000
C    -0.694000000    -2.818000000    -6.475000000
C    -0.644000000    -4.176000000    -6.625000000
H     0.127000000    -4.667000000    -7.213000000
C    -1.549000000    -5.008000000    -5.966000000
H    -1.313000000    -6.060000000    -6.106000000
C    -2.518000000    -4.555000000    -5.134000000
H    -3.328000000    -5.187000000    -4.781000000
C    -2.659000000    -3.134000000    -5.036000000
C    -1.681000000    -2.277000000    -5.623000000
H    -1.697000000    -1.215000000    -5.391000000
C    -0.238000000     0.537000000    -2.523000000
H     0.475000000     0.828000000    -3.290000000
C     0.326000000     0.194000000    -1.309000000
H     1.397000000     0.218000000    -1.122000000
C    -0.424000000    -0.169000000    -0.231000000
H    -0.003000000    -0.367000000     0.664000000
C    -1.806000000    -0.188000000    -0.363000000
H    -2.517000000    -0.466000000     0.411000000
C    -2.374000000     0.297000000    -1.570000000
H    -3.447000000     0.288000000    -1.749000000
C    -1.616000000     0.542000000    -2.675000000
C    -2.161000000     1.004000000    -4.009000000
O    -3.362000000     1.206000000    -4.207000000
O    -1.381000000     1.171000000    -4.951000000
O    -6.124000000     0.848000000    -3.896000000
H    -6.322000000     1.077000000    -2.988000000
H    -5.170000000     0.895000000    -3.952000000
O    -2.653000000    -1.335000000    -9.757000000
H    -2.324000000    -0.648000000    -9.177000000
H    -3.552000000    -1.072000000    -9.954000000
O     2.967000000     1.913000000    -9.348000000
H     2.527000000     1.480000000    -8.617000000
H     3.853000000     1.551000000    -9.343000000
O    -1.767000000     2.917000000     0.281000000
H    -1.248000000     2.255000000    -0.175000000
H    -2.302000000     2.419000000     0.899000000
O    -2.067000000     3.520000000    -6.205000000
H    -2.513000000     4.084000000    -5.572000000
H    -1.990000000     2.676000000    -5.760000000
O    -7.720000000     2.028000000    -5.663000000
H    -7.330000000     2.882000000    -5.850000000
H    -7.245000000     1.711000000    -4.895000000
O    -4.644000000     1.255000000    -7.061000000
H    -4.453000000     1.201000000    -6.124000000
H    -5.160000000     2.056000000    -7.155000000
O    -3.730000000     3.926000000    -3.799000000
H    -3.546000000     4.113000000    -2.878000000
H    -3.516000000     2.999000000    -3.903000000
O    -1.797000000     0.736000000    -7.612000000
H    -2.739000000     0.570000000    -7.603000000
H    -1.551000000     0.772000000    -6.688000000
O    -3.666000000     7.422000000    -1.315000000
H    -4.585000000     7.686000000    -1.294000000
H    -3.684000000     6.477000000    -1.159000000
O    -3.446000000     4.604000000    -1.151000000
H    -2.716000000     4.205000000    -0.679000000
H    -4.226000000     4.306000000    -0.682000000
O    -1.334000000     6.059000000    -5.302000000
H    -1.093000000     5.294000000    -5.823000000
H    -1.521000000     5.708000000    -4.432000000
O    -6.987000000     1.472000000    -0.883000000
H    -7.512000000     1.868000000    -0.187000000
H    -7.383000000     0.611000000    -1.021000000
O    -5.420000000    -0.496000000    -8.869000000
H    -6.062000000    -0.019000000    -9.394000000
H    -5.172000000     0.118000000    -8.177000000
O    -6.908000000    -1.201000000    -5.621000000
H    -6.338000000    -1.304000000    -6.383000000
H    -6.496000000    -0.506000000    -5.107000000
O    -0.876000000     3.296000000    -8.996000000
H    -1.072000000     2.926000000    -8.135000000
H    -1.560000000     2.949000000    -9.568000000
O    -7.472000000     4.502000000    -7.906000000
H    -7.185000000     4.332000000    -8.803000000
H    -6.735000000     4.224000000    -7.362000000
O    -5.552000000     4.191000000    -6.331000000
H    -5.171000000     5.043000000    -6.543000000
H    -5.109000000     3.926000000    -5.524000000
O    -2.965000000     5.627000000    -9.577000000
H    -2.269000000     6.084000000   -10.049000000
H    -2.612000000     4.751000000    -9.419000000
