215
-1449.03509
C     4.197000000    -1.562000000    -3.640000000
H     4.271000000    -2.627000000    -3.433000000
C     4.208000000    -0.660000000    -2.537000000
C     4.075000000     0.694000000    -2.815000000
H     3.862000000     1.361000000    -1.983000000
C     4.094000000    -1.179000000    -1.105000000
O     4.499000000    -2.531000000    -0.953000000
H     3.009000000    -1.114000000    -0.938000000
O     4.843000000    -0.341000000    -0.225000000
C     4.291000000    -0.156000000     1.072000000
C     3.713000000     1.112000000     1.198000000
H     3.900000000     1.818000000     0.393000000
C     3.032000000     1.361000000     2.387000000
O     2.479000000     2.623000000     2.605000000
C     3.032000000     0.459000000     3.464000000
C     2.344000000     0.765000000     4.817000000
H     2.699000000     0.076000000     5.586000000
C     0.801000000     0.657000000     4.750000000
C     0.171000000    -0.545000000     5.164000000
H     0.796000000    -1.397000000     5.419000000
H     2.650000000     1.765000000     5.128000000
C     3.661000000    -0.754000000     3.273000000
H     3.615000000    -1.443000000     4.113000000
C     4.263000000    -1.068000000     2.120000000
C     4.794000000    -2.466000000     1.963000000
H     4.960000000    -3.019000000     2.890000000
H     5.721000000    -2.330000000     1.403000000
C     3.685000000    -3.218000000     1.221000000
C     2.637000000    -3.798000000     1.967000000
H     2.559000000    -3.616000000     3.035000000
C     3.615000000    -3.243000000    -0.186000000
C     2.598000000    -3.923000000    -0.814000000
H     2.510000000    -3.971000000    -1.896000000
C     1.637000000    -4.610000000    -0.082000000
O     0.571000000    -5.037000000    -0.818000000
C    -0.515000000    -4.016000000    -0.748000000
C    -0.881000000    -3.449000000    -2.133000000
C    -1.876000000    -2.449000000    -2.250000000
H    -2.270000000    -1.995000000    -1.344000000
C    -0.271000000    -3.890000000    -3.295000000
H     0.435000000    -4.714000000    -3.217000000
O    -1.620000000    -4.487000000     0.030000000
H    -0.126000000    -3.090000000    -0.298000000
C     1.579000000    -4.482000000     1.337000000
C     0.432000000    -5.244000000     2.021000000
H     0.738000000    -5.617000000     3.001000000
H     0.070000000    -6.038000000     1.365000000
C    -0.701000000    -4.269000000     2.240000000
C    -0.792000000    -3.592000000     3.501000000
H    -0.074000000    -3.770000000     4.296000000
C    -1.621000000    -4.025000000     1.285000000
C    -2.618000000    -3.033000000     1.525000000
H    -3.234000000    -2.633000000     0.723000000
C    -2.748000000    -2.399000000     2.761000000
O    -3.821000000    -1.541000000     2.914000000
C    -3.531000000    -0.110000000     2.950000000
C    -4.683000000     0.749000000     2.346000000
C    -5.110000000     0.296000000     1.050000000
H    -4.714000000    -0.620000000     0.617000000
C    -4.965000000     1.997000000     2.840000000
H    -4.380000000     2.455000000     3.634000000
O    -3.297000000     0.271000000     4.329000000
H    -2.661000000     0.115000000     2.316000000
C    -1.798000000    -2.622000000     3.712000000
C    -1.772000000    -2.049000000     5.125000000
H    -1.219000000    -2.708000000     5.797000000
H    -2.749000000    -2.097000000     5.610000000
C    -1.193000000    -0.631000000     5.028000000
C    -1.957000000     0.459000000     4.696000000
C    -1.398000000     1.728000000     4.457000000
H    -1.911000000     2.532000000     3.935000000
C     0.015000000     1.795000000     4.478000000
O     0.575000000     2.834000000     3.916000000
C     1.070000000     2.852000000     2.538000000
H     0.641000000     1.970000000     2.040000000
C     0.770000000     4.091000000     1.687000000
C     1.643000000     4.505000000     0.595000000
H     2.575000000     3.966000000     0.447000000
C    -0.408000000     4.864000000     1.873000000
H    -1.012000000     4.703000000     2.762000000
C    -0.725000000     5.898000000     1.000000000
O    -1.923000000     6.579000000     1.127000000
C     0.029000000     6.094000000    -0.153000000
H    -0.288000000     6.892000000    -0.819000000
C     1.172000000     5.419000000    -0.323000000
O     1.932000000     5.755000000    -1.418000000
C     2.985000000     5.083000000    -1.910000000
C     2.815000000     4.116000000    -2.827000000
H     1.831000000     3.811000000    -3.176000000
C     4.276000000     5.520000000    -1.541000000
H     4.404000000     6.355000000    -0.857000000
C     5.376000000     4.924000000    -2.037000000
H     6.400000000     5.143000000    -1.745000000
C     5.231000000     3.946000000    -3.032000000
H     6.148000000     3.463000000    -3.360000000
C     3.985000000     3.513000000    -3.380000000
O     3.838000000     2.506000000    -4.336000000
C     4.027000000     1.176000000    -4.079000000
C     4.136000000     0.286000000    -5.135000000
H     4.022000000     0.638000000    -6.157000000
C     4.123000000    -1.102000000    -4.928000000
O     4.181000000    -1.978000000    -5.962000000
C     3.294000000    -3.149000000    -6.137000000
C     1.954000000    -3.053000000    -5.773000000
H     1.495000000    -2.104000000    -5.508000000
C     3.833000000    -4.367000000    -6.571000000
H     4.898000000    -4.481000000    -6.753000000
C     2.993000000    -5.542000000    -6.471000000
H     3.416000000    -6.539000000    -6.572000000
C     1.646000000    -5.433000000    -6.286000000
H     1.018000000    -6.320000000    -6.256000000
C     1.154000000    -4.150000000    -5.933000000
O    -0.187000000    -4.140000000    -5.710000000
C    -0.726000000    -3.543000000    -4.608000000
C    -1.670000000    -2.539000000    -4.667000000
H    -2.067000000    -2.182000000    -5.614000000
C    -2.248000000    -1.999000000    -3.533000000
O    -3.240000000    -1.011000000    -3.580000000
C    -4.531000000    -1.081000000    -3.118000000
C    -4.956000000    -0.102000000    -2.211000000
H    -4.261000000     0.638000000    -1.823000000
C    -5.440000000    -2.012000000    -3.733000000
H    -5.015000000    -2.776000000    -4.380000000
C    -6.747000000    -2.012000000    -3.190000000
H    -7.468000000    -2.777000000    -3.468000000
C    -7.182000000    -1.035000000    -2.263000000
H    -8.200000000    -1.062000000    -1.884000000
C    -6.233000000    -0.134000000    -1.730000000
O    -6.670000000     0.674000000    -0.694000000
C    -6.066000000     1.096000000     0.466000000
C    -6.428000000     2.309000000     0.987000000
H    -6.997000000     3.004000000     0.374000000
C    -5.766000000     2.842000000     2.092000000
O    -5.911000000     4.199000000     2.398000000
C    -4.870000000     5.070000000     2.609000000
C    -4.786000000     5.580000000     3.869000000
H    -5.602000000     5.250000000     4.508000000
C    -3.798000000     6.477000000     4.286000000
H    -3.827000000     6.936000000     5.271000000
C    -2.819000000     6.770000000     3.370000000
H    -2.123000000     7.550000000     3.668000000
C    -2.807000000     6.214000000     2.094000000
C    -3.742000000     5.270000000     1.743000000
H    -3.668000000     4.931000000     0.713000000
C    -0.341000000     0.464000000    -2.103000000
H     0.014000000    -0.048000000    -2.993000000
C     0.046000000    -0.064000000    -0.876000000
H     0.764000000    -0.879000000    -0.909000000
C    -0.370000000     0.511000000     0.323000000
H    -0.173000000     0.055000000     1.385000000
C    -1.246000000     1.610000000     0.386000000
H    -1.498000000     2.143000000     1.299000000
C    -1.646000000     2.098000000    -0.862000000
H    -2.290000000     2.972000000    -0.808000000
C    -1.248000000     1.568000000    -2.104000000
C    -1.747000000     2.227000000    -3.379000000
O    -2.451000000     3.218000000    -3.307000000
O    -1.507000000     1.704000000    -4.440000000
O     1.266000000     6.627000000    -5.382000000
H     0.651000000     6.942000000    -4.719000000
H     2.103000000     7.022000000    -5.138000000
O    -4.403000000     5.911000000    -5.972000000
H    -4.801000000     5.792000000    -6.835000000
H    -4.165000000     5.027000000    -5.694000000
O    -3.328000000     0.796000000    -6.371000000
H    -3.437000000     0.281000000    -5.572000000
H    -2.418000000     1.093000000    -6.343000000
O    -6.563000000     5.526000000    -1.291000000
H    -6.180000000     6.402000000    -1.321000000
H    -6.004000000     4.999000000    -1.861000000
O    -0.250000000     7.845000000    -3.506000000
H    -0.716000000     7.058000000    -3.223000000
H    -0.772000000     8.184000000    -4.234000000
O    -7.549000000     4.504000000    -4.370000000
H    -6.718000000     4.976000000    -4.408000000
H    -7.433000000     3.870000000    -3.663000000
O    -3.407000000     8.086000000    -0.958000000
H    -2.661000000     7.549000000    -0.689000000
H    -3.695000000     7.698000000    -1.785000000
O     0.306000000     4.607000000    -6.681000000
H    -0.126000000     5.032000000    -7.421000000
H     0.537000000     5.327000000    -6.093000000
O    -0.403000000    -0.379000000    -8.234000000
H    -0.128000000     0.448000000    -7.839000000
H    -1.338000000    -0.265000000    -8.403000000
O    -4.055000000     3.377000000    -5.455000000
H    -3.924000000     2.531000000    -5.882000000
H    -3.304000000     3.468000000    -4.869000000
O    -2.174000000     5.714000000    -2.514000000
H    -2.162000000     4.818000000    -2.849000000
H    -3.061000000     6.026000000    -2.694000000
O    -3.090000000     0.598000000    -9.689000000
H    -3.213000000     1.508000000    -9.416000000
H    -3.739000000     0.107000000    -9.185000000
O    -0.417000000     1.982000000    -6.899000000
H    -0.434000000     2.932000000    -7.012000000
H    -0.667000000     1.846000000    -5.985000000
O    -2.201000000     7.986000000    -5.716000000
H    -2.727000000     7.187000000    -5.708000000
H    -2.690000000     8.601000000    -5.170000000
O    -4.473000000     6.852000000    -3.331000000
H    -5.279000000     7.365000000    -3.389000000
H    -4.371000000     6.466000000    -4.201000000
O     2.155000000     2.494000000    -7.256000000
H     2.156000000     3.358000000    -6.845000000
H     1.256000000     2.181000000    -7.156000000
O    -4.746000000    -1.052000000    -8.082000000
H    -4.209000000    -0.580000000    -7.445000000
H    -5.257000000    -1.667000000    -7.556000000
O    -5.049000000     3.693000000    -2.877000000
H    -4.173000000     3.971000000    -2.610000000
H    -4.896000000     2.987000000    -3.504000000
O     1.493000000     3.298000000    -9.704000000
H     1.288000000     4.229000000    -9.617000000
H     1.544000000     2.979000000    -8.803000000
