215
-1474.31906
C    -1.377000000     2.310000000     3.988000000
H    -0.376000000     2.720000000     4.096000000
C    -1.600000000     0.954000000     3.940000000
C    -2.888000000     0.465000000     3.734000000
H    -3.049000000    -0.604000000     3.845000000
C    -0.369000000    -0.036000000     4.042000000
O     0.748000000     0.513000000     4.729000000
H    -0.206000000    -0.076000000     2.954000000
O    -0.701000000    -1.293000000     4.589000000
C    -0.319000000    -2.364000000     3.764000000
C    -1.213000000    -3.111000000     2.996000000
H    -2.263000000    -2.836000000     3.059000000
C    -0.811000000    -4.217000000     2.282000000
O    -1.814000000    -4.775000000     1.437000000
C     0.537000000    -4.594000000     2.208000000
C     1.027000000    -5.588000000     1.138000000
H     1.889000000    -6.107000000     1.562000000
C     1.286000000    -4.952000000    -0.205000000
C     2.578000000    -4.529000000    -0.555000000
H     3.383000000    -4.552000000     0.175000000
H     0.284000000    -6.373000000     0.979000000
C     1.476000000    -3.790000000     2.890000000
H     2.543000000    -3.970000000     2.783000000
C     1.062000000    -2.743000000     3.729000000
C     2.120000000    -2.093000000     4.611000000
H     3.001000000    -2.712000000     4.793000000
H     1.690000000    -1.901000000     5.597000000
C     2.734000000    -0.783000000     4.009000000
C     3.892000000    -0.861000000     3.233000000
H     4.355000000    -1.839000000     3.132000000
C     1.970000000     0.381000000     4.057000000
C     2.524000000     1.564000000     3.481000000
H     1.999000000     2.515000000     3.512000000
C     3.676000000     1.440000000     2.747000000
O     4.124000000     2.517000000     1.962000000
C     3.672000000     2.679000000     0.610000000
C     3.297000000     4.129000000     0.384000000
C     3.268000000     4.621000000    -0.948000000
H     3.729000000     4.015000000    -1.725000000
C     2.783000000     4.985000000     1.377000000
H     2.919000000     4.685000000     2.413000000
O     4.666000000     2.260000000    -0.234000000
H     2.728000000     2.119000000     0.531000000
C     4.328000000     0.256000000     2.587000000
C     5.416000000     0.118000000     1.523000000
H     5.965000000    -0.765000000     1.858000000
H     5.924000000     1.084000000     1.499000000
C     4.888000000    -0.147000000     0.094000000
C     4.829000000    -1.482000000    -0.369000000
H     4.984000000    -2.296000000     0.334000000
C     4.611000000     0.954000000    -0.716000000
C     4.095000000     0.736000000    -1.951000000
H     3.792000000     1.559000000    -2.593000000
C     3.898000000    -0.598000000    -2.401000000
O     3.112000000    -0.770000000    -3.446000000
C     1.752000000    -1.098000000    -3.298000000
C     0.831000000    -0.308000000    -4.246000000
C     0.786000000     1.064000000    -4.088000000
H     1.318000000     1.656000000    -3.348000000
C    -0.034000000    -0.936000000    -5.211000000
H     0.068000000    -1.994000000    -5.440000000
O     1.541000000    -2.484000000    -3.528000000
H     1.512000000    -0.921000000    -2.239000000
C     4.255000000    -1.695000000    -1.613000000
C     4.008000000    -3.122000000    -2.112000000
H     4.771000000    -3.744000000    -1.640000000
H     4.225000000    -3.259000000    -3.173000000
C     2.688000000    -3.703000000    -1.705000000
C     1.589000000    -3.413000000    -2.544000000
C     0.370000000    -4.014000000    -2.272000000
H    -0.495000000    -3.800000000    -2.893000000
C     0.204000000    -4.677000000    -1.084000000
O    -1.064000000    -5.192000000    -0.772000000
C    -1.882000000    -4.306000000     0.079000000
H    -1.577000000    -3.250000000     0.116000000
C    -3.238000000    -3.971000000    -0.412000000
C    -4.275000000    -3.747000000     0.493000000
H    -4.080000000    -3.918000000     1.548000000
C    -3.508000000    -3.761000000    -1.807000000
H    -2.757000000    -3.912000000    -2.578000000
C    -4.727000000    -3.250000000    -2.193000000
O    -4.956000000    -2.970000000    -3.543000000
C    -5.744000000    -3.038000000    -1.270000000
H    -6.693000000    -2.617000000    -1.592000000
C    -5.494000000    -3.295000000     0.071000000
O    -6.530000000    -3.045000000     0.965000000
C    -6.277000000    -2.417000000     2.161000000
C    -5.848000000    -1.110000000     2.184000000
H    -5.624000000    -0.591000000     1.256000000
C    -6.589000000    -3.056000000     3.399000000
H    -7.034000000    -4.047000000     3.409000000
C    -6.392000000    -2.356000000     4.603000000
H    -6.594000000    -2.784000000     5.582000000
C    -5.873000000    -1.049000000     4.552000000
H    -5.536000000    -0.551000000     5.457000000
C    -5.716000000    -0.394000000     3.342000000
O    -5.210000000     0.833000000     3.260000000
C    -3.947000000     1.311000000     3.487000000
C    -3.735000000     2.719000000     3.411000000
H    -4.537000000     3.397000000     3.133000000
C    -2.445000000     3.196000000     3.657000000
O    -2.250000000     4.576000000     3.462000000
C    -1.116000000     5.277000000     3.797000000
C    -0.346000000     5.839000000     2.771000000
H    -0.669000000     5.879000000     1.734000000
C    -0.595000000     5.135000000     5.126000000
H    -1.318000000     4.788000000     5.859000000
C     0.654000000     5.680000000     5.425000000
H     0.987000000     5.635000000     6.459000000
C     1.421000000     6.340000000     4.468000000
H     2.370000000     6.762000000     4.787000000
C     0.935000000     6.343000000     3.137000000
O     1.720000000     6.973000000     2.159000000
C     2.270000000     6.246000000     1.124000000
C     2.251000000     6.693000000    -0.222000000
H     1.897000000     7.697000000    -0.442000000
C     2.723000000     5.849000000    -1.274000000
O     2.735000000     6.326000000    -2.526000000
C     2.192000000     5.691000000    -3.546000000
C     1.171000000     4.722000000    -3.412000000
H     0.605000000     4.539000000    -2.502000000
C     2.847000000     5.876000000    -4.744000000
H     3.696000000     6.551000000    -4.813000000
C     2.353000000     5.268000000    -5.939000000
H     2.789000000     5.479000000    -6.912000000
C     1.328000000     4.380000000    -5.838000000
H     0.887000000     3.957000000    -6.738000000
C     0.721000000     4.079000000    -4.555000000
O    -0.334000000     3.200000000    -4.508000000
C    -0.184000000     1.829000000    -4.785000000
C    -1.114000000     1.146000000    -5.573000000
H    -1.947000000     1.665000000    -6.038000000
C    -1.021000000    -0.216000000    -5.900000000
O    -1.957000000    -0.789000000    -6.700000000
C    -2.615000000    -1.872000000    -6.273000000
C    -2.470000000    -3.039000000    -6.953000000
H    -1.882000000    -3.069000000    -7.867000000
C    -3.033000000    -4.237000000    -6.448000000
H    -3.048000000    -5.169000000    -7.008000000
C    -3.805000000    -4.239000000    -5.297000000
H    -4.329000000    -5.153000000    -5.028000000
C    -4.011000000    -3.024000000    -4.596000000
C    -3.309000000    -1.888000000    -5.036000000
H    -3.482000000    -0.945000000    -4.525000000
C    -1.841000000     0.043000000    -0.883000000
H    -2.447000000    -0.449000000    -1.641000000
C    -0.622000000    -0.507000000    -0.499000000
H    -0.259000000    -1.452000000    -0.893000000
C     0.210000000     0.215000000     0.379000000
H     1.205000000    -0.105000000     0.567000000
C    -0.164000000     1.476000000     0.770000000
H     0.526000000     2.066000000     1.369000000
C    -1.408000000     1.995000000     0.475000000
H    -1.716000000     2.927000000     0.942000000
C    -2.298000000     1.232000000    -0.283000000
C    -3.600000000     1.880000000    -0.731000000
O    -4.022000000     2.911000000    -0.256000000
O    -4.350000000     1.120000000    -1.296000000
O    -3.401000000     5.575000000    -0.264000000
H    -4.207000000     5.958000000     0.084000000
H    -3.502000000     4.634000000    -0.121000000
O    -2.633000000     7.500000000    -2.140000000
H    -2.878000000     6.857000000    -1.475000000
H    -1.867000000     7.942000000    -1.775000000
O    -2.541000000     8.337000000     0.903000000
H    -2.465000000     8.094000000     1.825000000
H    -3.103000000     7.662000000     0.522000000
O    -5.051000000     3.351000000    -6.054000000
H    -4.663000000     2.837000000    -5.345000000
H    -5.955000000     3.497000000    -5.776000000
O    -8.448000000     2.403000000    -1.683000000
H    -7.692000000     2.970000000    -1.535000000
H    -8.611000000     1.994000000    -0.833000000
O    -6.802000000     0.046000000    -0.894000000
H    -7.266000000     0.572000000    -1.546000000
H    -5.876000000     0.221000000    -1.061000000
O    -6.171000000     2.878000000     1.167000000
H    -6.304000000     1.948000000     1.349000000
H    -5.389000000     2.905000000     0.615000000
O    -5.168000000     0.282000000    -6.650000000
H    -5.820000000     0.928000000    -6.921000000
H    -4.955000000     0.520000000    -5.748000000
O    -9.097000000    -1.898000000    -0.322000000
H    -8.217000000    -1.594000000    -0.544000000
H    -9.107000000    -1.924000000     0.635000000
O    -7.743000000     1.018000000    -3.898000000
H    -8.134000000     1.178000000    -3.039000000
H    -7.804000000     1.860000000    -4.349000000
O    -7.079000000     3.690000000     3.916000000
H    -6.545000000     3.779000000     3.127000000
H    -6.460000000     3.804000000     4.638000000
O    -5.908000000     3.930000000    -2.117000000
H    -5.482000000     3.495000000    -1.378000000
H    -5.207000000     4.430000000    -2.537000000
O    -7.372000000     6.889000000    -2.991000000
H    -6.457000000     6.618000000    -3.072000000
H    -7.641000000     6.570000000    -2.129000000
O    -4.930000000     1.081000000    -4.036000000
H    -4.660000000     1.261000000    -3.136000000
H    -5.883000000     1.170000000    -4.023000000
O    -8.179000000     6.324000000    -0.236000000
H    -7.331000000     6.445000000     0.191000000
H    -8.513000000     5.502000000     0.124000000
O    -7.524000000     3.667000000    -4.582000000
H    -7.927000000     4.344000000    -5.126000000
H    -7.058000000     4.152000000    -3.901000000
O    -4.556000000     5.790000000    -3.490000000
H    -4.831000000     6.265000000    -4.274000000
H    -3.861000000     6.330000000    -3.114000000
O    -8.647000000     4.011000000     1.238000000
H    -7.774000000     3.734000000     0.961000000
H    -8.708000000     3.735000000     2.152000000
O    -5.601000000     6.848000000     1.354000000
H    -5.218000000     6.456000000     2.138000000
H    -6.162000000     7.549000000     1.686000000
