215
-1444.25325
C    -2.656000000     1.768000000     3.397000000
H    -1.654000000     2.177000000     3.498000000
C    -2.768000000     0.400000000     3.477000000
C    -4.045000000    -0.152000000     3.305000000
H    -4.158000000    -1.231000000     3.246000000
C    -1.517000000    -0.438000000     3.687000000
O    -0.538000000     0.066000000     4.702000000
H    -1.036000000    -0.668000000     2.726000000
O    -1.836000000    -1.821000000     4.115000000
C    -1.249000000    -2.893000000     3.460000000
C    -2.000000000    -3.512000000     2.515000000
H    -2.984000000    -3.125000000     2.264000000
C    -1.394000000    -4.528000000     1.753000000
O    -2.038000000    -4.803000000     0.518000000
C     0.020000000    -4.709000000     1.882000000
C     0.688000000    -5.519000000     0.842000000
H     1.514000000    -6.117000000     1.233000000
C     1.304000000    -4.675000000    -0.256000000
C     2.622000000    -4.179000000    -0.063000000
H     3.158000000    -4.438000000     0.847000000
H    -0.055000000    -6.220000000     0.456000000
C     0.717000000    -4.115000000     2.924000000
H     1.705000000    -4.495000000     3.173000000
C     0.080000000    -3.119000000     3.683000000
C     0.868000000    -2.356000000     4.740000000
H     1.770000000    -2.840000000     5.120000000
H     0.471000000    -2.184000000     5.742000000
C     1.445000000    -1.028000000     4.220000000
C     2.782000000    -0.995000000     3.856000000
H     3.338000000    -1.929000000     3.834000000
C     0.686000000     0.138000000     4.290000000
C     1.253000000     1.355000000     3.947000000
H     0.651000000     2.257000000     3.888000000
C     2.558000000     1.393000000     3.512000000
O     3.033000000     2.598000000     3.098000000
C     3.262000000     2.817000000     1.637000000
C     2.868000000     4.236000000     1.317000000
C     3.303000000     4.776000000     0.097000000
H     4.167000000     4.370000000    -0.422000000
C     1.862000000     4.960000000     2.010000000
H     1.453000000     4.389000000     2.839000000
O     4.637000000     2.416000000     1.252000000
H     2.466000000     2.227000000     1.161000000
C     3.384000000     0.217000000     3.566000000
C     4.830000000     0.157000000     3.065000000
H     5.322000000    -0.756000000     3.406000000
H     5.395000000     1.053000000     3.333000000
C     4.808000000     0.075000000     1.545000000
C     4.832000000    -1.267000000     0.990000000
H     4.779000000    -2.081000000     1.708000000
C     4.666000000     1.134000000     0.688000000
C     4.415000000     0.962000000    -0.652000000
H     4.336000000     1.856000000    -1.265000000
C     4.344000000    -0.382000000    -1.136000000
O     3.995000000    -0.470000000    -2.455000000
C     2.695000000    -0.832000000    -2.820000000
C     2.224000000     0.102000000    -4.006000000
C     2.596000000     1.428000000    -4.214000000
H     3.394000000     1.845000000    -3.606000000
C     1.229000000    -0.422000000    -4.827000000
H     0.975000000    -1.476000000    -4.742000000
O     2.799000000    -2.233000000    -3.159000000
H     2.025000000    -0.635000000    -1.969000000
C     4.600000000    -1.498000000    -0.345000000
C     4.546000000    -2.876000000    -0.960000000
H     5.089000000    -3.506000000    -0.252000000
H     4.980000000    -2.827000000    -1.961000000
C     3.172000000    -3.349000000    -1.055000000
C     2.396000000    -3.179000000    -2.206000000
C     1.155000000    -3.667000000    -2.436000000
H     0.575000000    -3.390000000    -3.313000000
C     0.576000000    -4.389000000    -1.443000000
O    -0.765000000    -4.640000000    -1.565000000
C    -1.775000000    -4.002000000    -0.690000000
H    -1.413000000    -3.017000000    -0.359000000
C    -3.058000000    -3.614000000    -1.394000000
C    -4.265000000    -3.725000000    -0.706000000
H    -4.435000000    -4.093000000     0.303000000
C    -3.038000000    -3.104000000    -2.666000000
H    -2.127000000    -3.258000000    -3.240000000
C    -4.107000000    -2.495000000    -3.279000000
O    -4.030000000    -1.933000000    -4.535000000
C    -5.315000000    -2.617000000    -2.609000000
H    -6.207000000    -2.251000000    -3.111000000
C    -5.373000000    -3.106000000    -1.356000000
O    -6.667000000    -3.118000000    -0.804000000
C    -6.914000000    -2.762000000     0.498000000
C    -6.733000000    -1.450000000     0.950000000
H    -6.346000000    -0.690000000     0.275000000
C    -7.327000000    -3.763000000     1.438000000
H    -7.444000000    -4.812000000     1.181000000
C    -7.560000000    -3.385000000     2.763000000
H    -8.004000000    -4.049000000     3.500000000
C    -7.222000000    -2.041000000     3.142000000
H    -7.367000000    -1.732000000     4.175000000
C    -6.727000000    -1.120000000     2.256000000
O    -6.479000000     0.211000000     2.601000000
C    -5.179000000     0.626000000     2.969000000
C    -5.009000000     2.047000000     2.989000000
H    -5.779000000     2.799000000     2.834000000
C    -3.768000000     2.628000000     3.221000000
O    -3.632000000     3.956000000     3.259000000
C    -2.495000000     4.685000000     3.687000000
C    -1.796000000     5.420000000     2.747000000
H    -2.041000000     5.426000000     1.688000000
C    -2.015000000     4.507000000     4.998000000
H    -2.406000000     3.765000000     5.689000000
C    -0.874000000     5.207000000     5.318000000
H    -0.478000000     5.070000000     6.321000000
C    -0.203000000     5.990000000     4.375000000
H     0.724000000     6.432000000     4.731000000
C    -0.599000000     5.967000000     3.077000000
O     0.098000000     6.620000000     2.122000000
C     1.246000000     6.073000000     1.512000000
C     1.752000000     6.560000000     0.241000000
H     1.463000000     7.537000000    -0.136000000
C     2.781000000     5.996000000    -0.431000000
O     3.104000000     6.559000000    -1.617000000
C     3.607000000     5.768000000    -2.674000000
C     2.770000000     5.064000000    -3.525000000
H     1.742000000     5.045000000    -3.172000000
C     5.002000000     5.888000000    -2.897000000
H     5.667000000     6.381000000    -2.193000000
C     5.498000000     5.112000000    -3.939000000
H     6.579000000     5.107000000    -4.047000000
C     4.672000000     4.336000000    -4.802000000
H     5.021000000     3.644000000    -5.564000000
C     3.307000000     4.276000000    -4.521000000
O     2.433000000     3.528000000    -5.303000000
C     2.054000000     2.193000000    -5.163000000
C     1.066000000     1.647000000    -6.031000000
H     0.776000000     2.232000000    -6.900000000
C     0.681000000     0.350000000    -5.861000000
O    -0.072000000    -0.210000000    -6.812000000
C    -1.058000000    -1.163000000    -6.616000000
C    -1.051000000    -2.174000000    -7.483000000
H    -0.290000000    -2.331000000    -8.243000000
C    -2.029000000    -3.195000000    -7.331000000
H    -1.962000000    -4.097000000    -7.933000000
C    -2.953000000    -3.139000000    -6.279000000
H    -3.548000000    -4.043000000    -6.173000000
C    -2.972000000    -2.064000000    -5.408000000
C    -1.993000000    -1.044000000    -5.558000000
H    -2.003000000    -0.200000000    -4.873000000
C    -2.272000000     0.084000000    -0.871000000
H    -2.856000000    -0.607000000    -1.473000000
C    -0.927000000    -0.196000000    -0.825000000
H    -0.493000000    -1.141000000    -1.141000000
C    -0.042000000     0.818000000    -0.337000000
H     1.038000000     0.642000000    -0.348000000
C    -0.555000000     2.067000000     0.042000000
H     0.102000000     2.846000000     0.419000000
C    -1.941000000     2.287000000     0.022000000
H    -2.391000000     3.179000000     0.450000000
C    -2.824000000     1.274000000    -0.415000000
C    -4.288000000     1.654000000    -0.665000000
O    -4.627000000     2.803000000    -0.350000000
O    -5.036000000     0.982000000    -1.363000000
O    -4.289000000     5.394000000     0.686000000
H    -4.974000000     5.733000000     1.262000000
H    -4.389000000     4.443000000     0.728000000
O    -0.808000000     4.717000000    -3.385000000
H    -0.767000000     4.760000000    -4.341000000
H    -0.709000000     3.787000000    -3.183000000
O    -2.270000000     7.132000000     0.002000000
H    -2.971000000     6.487000000     0.096000000
H    -2.114000000     7.179000000    -0.942000000
O    -2.566000000     6.750000000    -2.854000000
H    -2.055000000     5.995000000    -3.147000000
H    -2.799000000     7.209000000    -3.661000000
O    -2.829000000     2.533000000    -5.662000000
H    -3.066000000     2.050000000    -4.871000000
H    -2.672000000     3.428000000    -5.360000000
O    -9.857000000     2.563000000    -2.168000000
H    -9.075000000     2.018000000    -2.082000000
H    -9.910000000     3.039000000    -1.339000000
O    -7.615000000     0.653000000    -1.965000000
H    -8.035000000     0.181000000    -1.245000000
H    -6.696000000     0.715000000    -1.707000000
O    -7.207000000     3.090000000     0.247000000
H    -7.468000000     2.169000000     0.249000000
H    -6.295000000     3.080000000    -0.042000000
O    -5.068000000    -0.112000000    -6.784000000
H    -4.162000000     0.077000000    -6.539000000
H    -5.524000000    -0.220000000    -5.950000000
O    -8.690000000    -0.857000000    -4.132000000
H    -9.459000000    -0.986000000    -3.577000000
H    -8.107000000    -0.306000000    -3.609000000
O    -6.851000000     2.177000000    -4.240000000
H    -7.424000000     1.618000000    -3.714000000
H    -6.553000000     2.853000000    -3.632000000
O    -7.930000000     4.275000000     2.737000000
H    -7.372000000     5.052000000     2.693000000
H    -7.857000000     3.878000000     1.870000000
O    -5.895000000     4.090000000    -2.493000000
H    -5.933000000     5.036000000    -2.636000000
H    -5.135000000     3.964000000    -1.924000000
O    -5.833000000     2.808000000    -6.725000000
H    -6.404000000     2.553000000    -6.000000000
H    -5.099000000     2.196000000    -6.678000000
O    -9.202000000     0.599000000     0.388000000
H    -9.798000000    -0.139000000     0.258000000
H    -9.302000000     0.827000000     1.313000000
O    -4.259000000     0.856000000    -3.919000000
H    -4.376000000     0.700000000    -2.982000000
H    -5.037000000     1.350000000    -4.179000000
O    -8.454000000     5.196000000    -1.399000000
H    -7.845000000     4.580000000    -0.991000000
H    -9.291000000     5.025000000    -0.967000000
O    -5.142000000     6.546000000    -1.926000000
H    -4.382000000     6.836000000    -2.429000000
H    -4.771000000     6.167000000    -1.129000000
O    -6.249000000     6.492000000     2.366000000
H    -6.401000000     7.330000000     1.928000000
H    -5.981000000     6.730000000     3.253000000
