215
-1432.14523
C    -2.739000000     1.624000000     3.943000000
H    -1.784000000     2.142000000     3.921000000
C    -2.650000000     0.285000000     4.045000000
C    -3.739000000    -0.502000000     3.899000000
H    -3.642000000    -1.556000000     4.144000000
C    -1.244000000    -0.266000000     4.191000000
O    -0.368000000     0.271000000     5.212000000
H    -0.761000000    -0.283000000     3.203000000
O    -1.365000000    -1.636000000     4.571000000
C    -0.677000000    -2.541000000     3.822000000
C    -1.344000000    -3.196000000     2.811000000
H    -2.408000000    -2.971000000     2.813000000
C    -0.694000000    -4.096000000     1.947000000
O    -1.411000000    -4.608000000     0.860000000
C     0.665000000    -4.414000000     2.211000000
C     1.491000000    -5.173000000     1.167000000
H     2.453000000    -5.399000000     1.631000000
C     1.968000000    -4.312000000    -0.040000000
C     3.223000000    -3.695000000    -0.063000000
H     3.955000000    -3.816000000     0.732000000
H     1.042000000    -6.131000000     0.894000000
C     1.307000000    -3.724000000     3.219000000
H     2.360000000    -3.881000000     3.438000000
C     0.688000000    -2.773000000     4.006000000
C     1.469000000    -2.026000000     5.099000000
H     2.353000000    -2.631000000     5.311000000
H     0.956000000    -1.948000000     6.059000000
C     1.848000000    -0.683000000     4.656000000
C     3.083000000    -0.446000000     4.109000000
H     3.715000000    -1.328000000     4.050000000
C     1.003000000     0.389000000     4.823000000
C     1.349000000     1.603000000     4.197000000
H     0.652000000     2.437000000     4.161000000
C     2.498000000     1.788000000     3.509000000
O     2.655000000     2.969000000     2.790000000
C     2.672000000     3.141000000     1.335000000
C     2.061000000     4.404000000     0.787000000
C     2.559000000     4.978000000    -0.396000000
H     3.413000000     4.549000000    -0.914000000
C     0.924000000     4.881000000     1.506000000
H     0.462000000     4.332000000     2.323000000
O     4.049000000     3.034000000     0.845000000
H     2.100000000     2.347000000     0.833000000
C     3.461000000     0.755000000     3.555000000
C     4.823000000     0.803000000     2.848000000
H     5.455000000    -0.006000000     3.220000000
H     5.340000000     1.709000000     3.171000000
C     4.775000000     0.707000000     1.307000000
C     5.162000000    -0.523000000     0.674000000
H     5.534000000    -1.335000000     1.294000000
C     4.439000000     1.782000000     0.443000000
C     4.253000000     1.533000000    -0.922000000
H     3.926000000     2.362000000    -1.543000000
C     4.464000000     0.292000000    -1.487000000
O     3.972000000     0.107000000    -2.797000000
C     2.753000000    -0.641000000    -3.002000000
C     1.778000000     0.099000000    -3.985000000
C     1.850000000     1.431000000    -4.169000000
H     2.565000000     2.041000000    -3.623000000
C     0.839000000    -0.586000000    -4.776000000
H     0.662000000    -1.651000000    -4.645000000
O     2.999000000    -2.034000000    -3.429000000
H     2.293000000    -0.595000000    -2.004000000
C     4.930000000    -0.739000000    -0.646000000
C     4.979000000    -2.175000000    -1.133000000
H     5.741000000    -2.756000000    -0.608000000
H     5.303000000    -2.244000000    -2.173000000
C     3.615000000    -2.866000000    -1.163000000
C     2.737000000    -2.822000000    -2.289000000
C     1.506000000    -3.445000000    -2.221000000
H     0.775000000    -3.347000000    -3.020000000
C     1.067000000    -4.090000000    -1.112000000
O    -0.209000000    -4.576000000    -1.128000000
C    -1.309000000    -4.046000000    -0.403000000
H    -1.138000000    -2.965000000    -0.289000000
C    -2.590000000    -3.967000000    -1.265000000
C    -3.768000000    -3.494000000    -0.704000000
H    -3.925000000    -3.367000000     0.364000000
C    -2.513000000    -3.916000000    -2.707000000
H    -1.684000000    -4.285000000    -3.305000000
C    -3.664000000    -3.766000000    -3.453000000
O    -3.646000000    -4.120000000    -4.783000000
C    -4.844000000    -3.366000000    -2.844000000
H    -5.729000000    -3.202000000    -3.453000000
C    -4.876000000    -3.189000000    -1.458000000
O    -6.041000000    -2.710000000    -0.945000000
C    -6.337000000    -2.761000000     0.436000000
C    -6.120000000    -1.692000000     1.287000000
H    -5.784000000    -0.717000000     0.943000000
C    -6.760000000    -3.961000000     0.947000000
H    -6.801000000    -4.869000000     0.350000000
C    -6.986000000    -4.050000000     2.357000000
H    -7.250000000    -5.021000000     2.769000000
C    -6.897000000    -3.003000000     3.186000000
H    -7.208000000    -3.103000000     4.223000000
C    -6.351000000    -1.809000000     2.636000000
O    -6.105000000    -0.696000000     3.455000000
C    -4.981000000     0.058000000     3.591000000
C    -5.078000000     1.410000000     3.461000000
H    -6.067000000     1.857000000     3.388000000
C    -3.949000000     2.244000000     3.673000000
O    -4.098000000     3.627000000     3.367000000
C    -3.113000000     4.561000000     3.520000000
C    -2.439000000     5.086000000     2.472000000
H    -2.675000000     4.731000000     1.472000000
C    -2.598000000     4.950000000     4.773000000
H    -3.043000000     4.576000000     5.691000000
C    -1.682000000     5.904000000     4.929000000
H    -1.384000000     6.276000000     5.906000000
C    -1.044000000     6.455000000     3.817000000
H    -0.303000000     7.241000000     3.936000000
C    -1.394000000     5.947000000     2.628000000
O    -0.818000000     6.564000000     1.503000000
C     0.348000000     6.028000000     0.944000000
C     0.903000000     6.723000000    -0.156000000
H     0.501000000     7.668000000    -0.511000000
C     1.909000000     6.092000000    -0.859000000
O     2.394000000     6.683000000    -1.947000000
C     2.791000000     5.954000000    -3.046000000
C     1.810000000     5.233000000    -3.697000000
H     0.777000000     5.411000000    -3.411000000
C     4.113000000     5.725000000    -3.318000000
H     4.866000000     6.242000000    -2.729000000
C     4.549000000     4.778000000    -4.281000000
H     5.608000000     4.633000000    -4.479000000
C     3.552000000     4.065000000    -4.912000000
H     3.824000000     3.368000000    -5.700000000
C     2.212000000     4.277000000    -4.613000000
O     1.248000000     3.527000000    -5.206000000
C     1.069000000     2.164000000    -5.113000000
C     0.076000000     1.491000000    -5.861000000
H    -0.381000000     2.065000000    -6.663000000
C    -0.014000000     0.097000000    -5.712000000
O    -0.971000000    -0.462000000    -6.453000000
C    -1.263000000    -1.805000000    -6.358000000
C    -0.565000000    -2.748000000    -7.122000000
H     0.240000000    -2.331000000    -7.721000000
C    -0.754000000    -4.134000000    -6.947000000
H    -0.201000000    -4.886000000    -7.504000000
C    -1.847000000    -4.541000000    -6.242000000
H    -2.033000000    -5.607000000    -6.137000000
C    -2.660000000    -3.630000000    -5.561000000
C    -2.232000000    -2.280000000    -5.488000000
H    -2.801000000    -1.546000000    -4.923000000
C    -2.260000000    -0.326000000    -1.440000000
H    -2.739000000    -0.733000000    -2.327000000
C    -0.901000000    -0.545000000    -1.212000000
H    -0.394000000    -1.232000000    -1.884000000
C    -0.270000000     0.077000000    -0.091000000
H     0.732000000    -0.122000000     0.126000000
C    -1.039000000     0.981000000     0.715000000
H    -0.489000000     1.536000000     1.470000000
C    -2.335000000     1.217000000     0.388000000
H    -2.831000000     1.945000000     1.024000000
C    -3.057000000     0.612000000    -0.665000000
C    -4.495000000     0.952000000    -1.054000000
O    -5.286000000     1.557000000    -0.311000000
O    -4.859000000     0.678000000    -2.163000000
O    -5.802000000     3.518000000     1.288000000
H    -5.006000000     3.805000000     1.736000000
H    -5.525000000     2.764000000     0.767000000
O    -0.939000000     2.441000000    -2.072000000
H    -0.070000000     2.837000000    -2.146000000
H    -0.865000000     1.838000000    -1.332000000
O    -3.062000000     4.519000000    -4.848000000
H    -2.403000000     4.906000000    -5.425000000
H    -2.923000000     3.575000000    -4.924000000
O    -3.073000000     4.227000000    -1.190000000
H    -2.156000000     3.954000000    -1.145000000
H    -3.524000000     3.486000000    -1.595000000
O    -6.268000000     5.594000000    -1.598000000
H    -6.457000000     5.666000000    -0.662000000
H    -6.310000000     4.655000000    -1.779000000
O    -3.602000000     0.762000000    -6.900000000
H    -3.031000000     0.862000000    -6.139000000
H    -4.399000000     0.363000000    -6.551000000
O    -6.684000000    -1.107000000    -6.969000000
H    -6.166000000    -0.942000000    -6.181000000
H    -6.230000000    -1.828000000    -7.406000000
O    -7.455000000    -0.306000000    -1.834000000
H    -7.550000000    -1.094000000    -1.298000000
H    -6.509000000    -0.186000000    -1.918000000
O    -9.182000000     0.919000000     0.118000000
H    -8.540000000     0.658000000    -0.543000000
H    -8.709000000     1.532000000     0.682000000
O    -5.286000000     0.034000000    -4.852000000
H    -5.187000000    -0.142000000    -3.916000000
H    -5.403000000     0.983000000    -4.905000000
O    -9.237000000    -1.106000000    -3.995000000
H    -8.689000000    -0.594000000    -3.400000000
H    -8.716000000    -1.885000000    -4.189000000
O    -9.540000000    -2.201000000    -0.757000000
H   -10.445000000    -2.367000000    -0.494000000
H    -9.379000000    -1.293000000    -0.501000000
O    -8.638000000     4.996000000    -3.488000000
H    -9.337000000     4.420000000    -3.798000000
H    -7.990000000     4.402000000    -3.108000000
O    -6.923000000     2.786000000    -2.490000000
H    -7.824000000     2.491000000    -2.619000000
H    -6.559000000     2.173000000    -1.852000000
O    -7.717000000     3.572000000    -6.225000000
H    -8.233000000     4.104000000    -5.620000000
H    -7.096000000     3.106000000    -5.665000000
O    -2.636000000     1.691000000    -4.030000000
H    -3.296000000     1.363000000    -3.418000000
H    -1.888000000     1.916000000    -3.477000000
O    -8.390000000     2.683000000     1.916000000
H    -7.806000000     3.378000000     1.611000000
H    -7.996000000     2.382000000     2.734000000
O    -4.287000000     6.647000000    -3.274000000
H    -4.186000000     5.775000000    -3.655000000
H    -4.647000000     6.487000000    -2.401000000
O    -5.522000000     2.971000000    -4.789000000
H    -4.712000000     3.340000000    -4.435000000
H    -6.095000000     2.878000000    -4.029000000
