215
-1441.04216
C    -1.017000000     2.394000000     3.989000000
H    -0.004000000     2.789000000     3.966000000
C    -1.197000000     1.037000000     4.273000000
C    -2.527000000     0.616000000     4.541000000
H    -2.772000000    -0.427000000     4.725000000
C    -0.166000000    -0.018000000     3.923000000
O     1.104000000     0.499000000     4.382000000
H    -0.051000000    -0.197000000     2.844000000
O    -0.386000000    -1.243000000     4.651000000
C    -0.153000000    -2.390000000     3.951000000
C    -1.177000000    -2.981000000     3.202000000
H    -2.119000000    -2.441000000     3.247000000
C    -0.960000000    -4.016000000     2.288000000
O    -2.012000000    -4.335000000     1.512000000
C     0.339000000    -4.475000000     2.110000000
C     0.691000000    -5.462000000     1.061000000
H     1.682000000    -5.868000000     1.273000000
C     0.982000000    -4.898000000    -0.332000000
C     2.283000000    -4.348000000    -0.616000000
H     3.049000000    -4.360000000     0.156000000
H     0.018000000    -6.305000000     0.890000000
C     1.364000000    -3.896000000     2.809000000
H     2.392000000    -4.168000000     2.587000000
C     1.133000000    -2.785000000     3.613000000
C     2.241000000    -2.138000000     4.400000000
H     3.056000000    -2.825000000     4.638000000
H     1.931000000    -1.813000000     5.395000000
C     2.865000000    -0.893000000     3.693000000
C     4.049000000    -0.951000000     2.988000000
H     4.536000000    -1.912000000     2.839000000
C     2.276000000     0.311000000     3.799000000
C     2.801000000     1.526000000     3.272000000
H     2.215000000     2.439000000     3.340000000
C     3.966000000     1.386000000     2.512000000
O     4.335000000     2.505000000     1.828000000
C     3.812000000     2.592000000     0.459000000
C     3.280000000     4.026000000     0.100000000
C     2.962000000     4.486000000    -1.211000000
H     3.148000000     3.830000000    -2.058000000
C     2.799000000     4.762000000     1.174000000
H     3.131000000     4.436000000     2.156000000
O     4.800000000     2.114000000    -0.461000000
H     2.927000000     1.948000000     0.352000000
C     4.527000000     0.119000000     2.274000000
C     5.631000000    -0.068000000     1.220000000
H     6.188000000    -0.987000000     1.412000000
H     6.321000000     0.774000000     1.308000000
C     5.046000000    -0.248000000    -0.139000000
C     4.734000000    -1.549000000    -0.596000000
H     4.787000000    -2.306000000     0.182000000
C     4.687000000     0.832000000    -0.947000000
C     4.033000000     0.669000000    -2.135000000
H     3.776000000     1.478000000    -2.814000000
C     3.727000000    -0.615000000    -2.546000000
O     2.812000000    -0.736000000    -3.666000000
C     1.527000000    -1.418000000    -3.507000000
C     0.492000000    -0.701000000    -4.407000000
C     0.623000000     0.691000000    -4.532000000
H     1.250000000     1.280000000    -3.868000000
C    -0.370000000    -1.413000000    -5.253000000
H    -0.344000000    -2.498000000    -5.317000000
O     1.662000000    -2.816000000    -3.866000000
H     1.150000000    -1.291000000    -2.481000000
C     4.116000000    -1.795000000    -1.821000000
C     3.880000000    -3.289000000    -2.224000000
H     4.578000000    -3.835000000    -1.586000000
H     4.161000000    -3.574000000    -3.240000000
C     2.488000000    -3.760000000    -1.863000000
C     1.468000000    -3.622000000    -2.755000000
C     0.136000000    -3.955000000    -2.407000000
H    -0.703000000    -3.687000000    -3.045000000
C    -0.097000000    -4.626000000    -1.203000000
O    -1.365000000    -4.816000000    -0.804000000
C    -1.986000000    -3.916000000     0.139000000
H    -1.376000000    -3.002000000     0.079000000
C    -3.443000000    -3.489000000    -0.310000000
C    -4.204000000    -2.675000000     0.495000000
H    -3.950000000    -2.412000000     1.519000000
C    -3.748000000    -3.600000000    -1.660000000
H    -3.096000000    -4.194000000    -2.296000000
C    -4.854000000    -2.909000000    -2.183000000
O    -5.235000000    -3.181000000    -3.504000000
C    -5.674000000    -2.190000000    -1.341000000
H    -6.586000000    -1.730000000    -1.713000000
C    -5.425000000    -2.086000000     0.025000000
O    -6.178000000    -1.263000000     0.863000000
C    -6.153000000    -1.093000000     2.231000000
C    -5.561000000     0.000000000     2.891000000
H    -5.096000000     0.855000000     2.407000000
C    -6.545000000    -2.229000000     3.000000000
H    -6.901000000    -3.170000000     2.588000000
C    -6.544000000    -2.116000000     4.382000000
H    -6.977000000    -2.939000000     4.945000000
C    -6.100000000    -0.935000000     5.027000000
H    -6.205000000    -0.947000000     6.109000000
C    -5.461000000     0.095000000     4.318000000
O    -4.808000000     1.060000000     4.956000000
C    -3.574000000     1.565000000     4.657000000
C    -3.328000000     2.927000000     4.595000000
H    -4.130000000     3.632000000     4.799000000
C    -2.007000000     3.306000000     4.340000000
O    -1.777000000     4.648000000     4.268000000
C    -0.587000000     5.310000000     4.336000000
C     0.068000000     5.627000000     3.192000000
H    -0.438000000     5.257000000     2.304000000
C    -0.013000000     5.616000000     5.567000000
H    -0.520000000     5.314000000     6.479000000
C     1.158000000     6.426000000     5.591000000
H     1.572000000     6.758000000     6.540000000
C     1.816000000     6.803000000     4.403000000
H     2.717000000     7.411000000     4.393000000
C     1.220000000     6.410000000     3.203000000
O     1.722000000     6.883000000     2.003000000
C     2.136000000     5.975000000     1.017000000
C     1.837000000     6.403000000    -0.239000000
H     1.358000000     7.360000000    -0.428000000
C     2.220000000     5.646000000    -1.336000000
O     1.806000000     6.102000000    -2.569000000
C     1.794000000     5.320000000    -3.695000000
C     0.698000000     4.474000000    -3.937000000
H    -0.171000000     4.518000000    -3.285000000
C     2.899000000     5.299000000    -4.537000000
H     3.724000000     5.987000000    -4.369000000
C     2.910000000     4.536000000    -5.719000000
H     3.702000000     4.463000000    -6.460000000
C     1.838000000     3.684000000    -5.890000000
H     1.839000000     2.993000000    -6.729000000
C     0.790000000     3.570000000    -4.954000000
O    -0.218000000     2.793000000    -5.394000000
C    -0.251000000     1.445000000    -5.358000000
C    -1.260000000     0.783000000    -6.001000000
H    -1.992000000     1.275000000    -6.637000000
C    -1.298000000    -0.654000000    -5.935000000
O    -2.241000000    -1.314000000    -6.678000000
C    -2.900000000    -2.435000000    -6.191000000
C    -2.796000000    -3.711000000    -6.792000000
H    -2.208000000    -3.868000000    -7.693000000
C    -3.542000000    -4.743000000    -6.259000000
H    -3.608000000    -5.635000000    -6.876000000
C    -4.355000000    -4.589000000    -5.133000000
H    -5.086000000    -5.357000000    -4.894000000
C    -4.424000000    -3.329000000    -4.593000000
C    -3.685000000    -2.281000000    -5.049000000
H    -3.861000000    -1.302000000    -4.609000000
C    -1.686000000     0.426000000    -0.530000000
H    -2.529000000    -0.245000000    -0.678000000
C    -0.393000000    -0.055000000    -0.296000000
H    -0.220000000    -1.128000000    -0.304000000
C     0.575000000     0.817000000     0.110000000
H     1.652000000     0.407000000     0.363000000
C     0.303000000     2.197000000     0.186000000
H     1.017000000     2.966000000     0.469000000
C    -1.035000000     2.652000000     0.089000000
H    -1.320000000     3.691000000     0.231000000
C    -2.006000000     1.788000000    -0.325000000
C    -3.422000000     2.330000000    -0.561000000
O    -3.705000000     3.521000000    -0.193000000
O    -4.290000000     1.715000000    -1.104000000
O    -6.260000000    -0.015000000    -5.545000000
H    -5.742000000     0.510000000    -4.936000000
H    -6.992000000     0.551000000    -5.787000000
O    -3.276000000     5.478000000     1.721000000
H    -2.772000000     5.028000000     2.399000000
H    -3.514000000     4.788000000     1.102000000
O    -2.481000000     4.113000000    -5.164000000
H    -1.659000000     3.650000000    -5.325000000
H    -2.411000000     4.419000000    -4.260000000
O    -5.861000000     3.625000000    -2.284000000
H    -5.342000000     2.998000000    -1.780000000
H    -6.768000000     3.433000000    -2.044000000
O    -6.701000000     1.126000000    -0.179000000
H    -6.607000000     0.300000000     0.297000000
H    -5.845000000     1.269000000    -0.581000000
O    -5.889000000     3.223000000     1.286000000
H    -6.353000000     2.475000000     0.911000000
H    -5.119000000     3.331000000     0.729000000
O    -7.394000000     6.724000000    -2.775000000
H    -6.540000000     6.475000000    -3.129000000
H    -7.290000000     6.652000000    -1.826000000
O    -4.792000000     3.399000000    -7.187000000
H    -3.950000000     3.102000000    -7.532000000
H    -4.568000000     3.873000000    -6.386000000
O    -4.344000000     9.337000000    -2.311000000
H    -3.739000000    10.064000000    -2.455000000
H    -3.787000000     8.618000000    -2.012000000
O    -8.356000000     2.675000000    -1.622000000
H    -8.602000000     3.303000000    -0.942000000
H    -7.972000000     1.941000000    -1.142000000
O    -2.938000000     4.961000000    -2.318000000
H    -3.456000000     4.592000000    -1.603000000
H    -2.714000000     5.843000000    -2.020000000
O    -5.118000000     5.412000000    -3.853000000
H    -5.230000000     4.753000000    -3.167000000
H    -4.195000000     5.350000000    -4.096000000
O    -9.663000000     1.601000000     0.951000000
H    -9.254000000     1.004000000     0.324000000
H   -10.290000000     1.055000000     1.427000000
O    -4.438000000     1.445000000    -4.382000000
H    -4.475000000     1.477000000    -3.426000000
H    -3.799000000     2.117000000    -4.619000000
O    -7.141000000     6.050000000    -0.352000000
H    -6.331000000     5.699000000     0.018000000
H    -7.830000000     5.488000000     0.001000000
O    -2.493000000     7.154000000    -0.456000000
H    -2.656000000     6.611000000     0.316000000
H    -2.046000000     7.928000000    -0.115000000
O    -6.701000000     4.916000000     3.103000000
H    -6.224000000     4.252000000     2.607000000
H    -6.208000000     5.724000000     2.958000000
O    -8.801000000     3.113000000     3.109000000
H    -7.950000000     3.547000000     3.059000000
H    -8.922000000     2.723000000     2.244000000
O    -5.473000000     7.176000000     2.428000000
H    -5.162000000     7.979000000     2.844000000
H    -4.676000000     6.722000000     2.155000000
