215
-1462.76800
C    -0.869000000     2.002000000     4.829000000
H     0.189000000     1.981000000     5.075000000
C    -1.519000000     0.826000000     4.351000000
C    -2.848000000     0.847000000     3.948000000
H    -3.392000000     0.005000000     3.527000000
C    -0.666000000    -0.420000000     4.109000000
O     0.467000000    -0.491000000     4.956000000
H    -0.346000000    -0.499000000     3.059000000
O    -1.391000000    -1.711000000     4.461000000
C    -1.289000000    -2.691000000     3.509000000
C    -2.414000000    -2.903000000     2.670000000
H    -3.283000000    -2.283000000     2.872000000
C    -2.264000000    -3.789000000     1.596000000
O    -3.199000000    -3.699000000     0.601000000
C    -1.056000000    -4.532000000     1.463000000
C    -0.924000000    -5.419000000     0.244000000
H    -0.295000000    -6.287000000     0.454000000
C    -0.250000000    -4.622000000    -0.844000000
C     1.103000000    -4.667000000    -0.921000000
H     1.737000000    -5.179000000    -0.202000000
H    -1.909000000    -5.808000000    -0.023000000
C    -0.063000000    -4.397000000     2.449000000
H     0.881000000    -4.932000000     2.374000000
C    -0.109000000    -3.418000000     3.437000000
C     1.049000000    -3.275000000     4.390000000
H     1.618000000    -4.198000000     4.525000000
H     0.699000000    -3.081000000     5.406000000
C     1.981000000    -2.121000000     4.012000000
C     3.139000000    -2.328000000     3.275000000
H     3.396000000    -3.338000000     2.966000000
C     1.646000000    -0.813000000     4.331000000
C     2.342000000     0.280000000     3.792000000
H     2.078000000     1.314000000     4.001000000
C     3.462000000     0.048000000     3.031000000
O     4.083000000     1.106000000     2.402000000
C     3.628000000     1.348000000     1.072000000
C     3.392000000     2.816000000     0.832000000
C     3.252000000     3.226000000    -0.508000000
H     3.309000000     2.563000000    -1.367000000
C     3.152000000     3.688000000     1.927000000
H     3.319000000     3.455000000     2.976000000
O     4.581000000     0.897000000     0.111000000
H     2.707000000     0.762000000     0.936000000
C     3.818000000    -1.268000000     2.696000000
C     4.932000000    -1.579000000     1.773000000
H     5.519000000    -2.490000000     1.904000000
H     5.687000000    -0.791000000     1.789000000
C     4.404000000    -1.549000000     0.314000000
C     4.041000000    -2.713000000    -0.262000000
H     3.918000000    -3.591000000     0.366000000
C     4.376000000    -0.338000000    -0.452000000
C     4.118000000    -0.386000000    -1.821000000
H     3.944000000     0.487000000    -2.446000000
C     3.894000000    -1.639000000    -2.369000000
O     3.452000000    -1.597000000    -3.678000000
C     2.054000000    -1.532000000    -3.921000000
C     1.549000000    -0.521000000    -5.005000000
C     2.251000000     0.612000000    -5.263000000
H     3.261000000     0.744000000    -4.885000000
C     0.261000000    -0.596000000    -5.442000000
H    -0.239000000    -1.514000000    -5.144000000
O     1.642000000    -2.827000000    -4.080000000
H     1.523000000    -1.211000000    -3.012000000
C     3.778000000    -2.805000000    -1.564000000
C     3.274000000    -4.092000000    -2.165000000
H     3.800000000    -4.957000000    -1.756000000
H     3.560000000    -4.153000000    -3.217000000
C     1.749000000    -4.130000000    -2.031000000
C     1.005000000    -3.526000000    -3.072000000
C    -0.327000000    -3.330000000    -2.935000000
H    -0.951000000    -2.769000000    -3.626000000
C    -0.976000000    -3.883000000    -1.796000000
O    -2.354000000    -3.759000000    -1.626000000
C    -2.848000000    -2.869000000    -0.532000000
H    -2.015000000    -2.199000000    -0.275000000
C    -4.107000000    -2.132000000    -0.900000000
C    -4.821000000    -1.453000000     0.050000000
H    -4.603000000    -1.654000000     1.096000000
C    -4.423000000    -1.973000000    -2.223000000
H    -3.873000000    -2.561000000    -2.953000000
C    -5.340000000    -1.082000000    -2.700000000
O    -5.404000000    -0.800000000    -4.035000000
C    -6.158000000    -0.448000000    -1.758000000
H    -6.974000000     0.219000000    -2.021000000
C    -5.949000000    -0.654000000    -0.331000000
O    -6.902000000    -0.252000000     0.471000000
C    -6.701000000     0.010000000     1.782000000
C    -5.852000000     0.986000000     2.159000000
H    -5.354000000     1.482000000     1.330000000
C    -7.485000000    -0.726000000     2.688000000
H    -8.200000000    -1.489000000     2.392000000
C    -7.208000000    -0.491000000     4.071000000
H    -7.779000000    -1.035000000     4.819000000
C    -6.356000000     0.525000000     4.423000000
H    -6.252000000     0.767000000     5.478000000
C    -5.637000000     1.230000000     3.474000000
O    -4.832000000     2.309000000     3.708000000
C    -3.480000000     2.086000000     4.023000000
C    -2.872000000     3.182000000     4.518000000
H    -3.534000000     4.026000000     4.692000000
C    -1.547000000     3.187000000     4.957000000
O    -0.959000000     4.276000000     5.610000000
C     0.357000000     4.694000000     5.384000000
C     0.761000000     4.879000000     4.087000000
H     0.125000000     4.894000000     3.205000000
C     1.136000000     4.965000000     6.451000000
H     0.773000000     4.825000000     7.466000000
C     2.336000000     5.635000000     6.279000000
H     2.826000000     6.185000000     7.078000000
C     2.817000000     5.858000000     4.974000000
H     3.730000000     6.431000000     4.839000000
C     2.036000000     5.456000000     3.909000000
O     2.373000000     5.873000000     2.626000000
C     2.777000000     4.972000000     1.690000000
C     2.664000000     5.416000000     0.373000000
H     2.261000000     6.416000000     0.239000000
C     3.007000000     4.610000000    -0.744000000
O     2.816000000     5.016000000    -2.031000000
C     3.438000000     4.527000000    -3.140000000
C     2.640000000     3.965000000    -4.070000000
H     1.594000000     3.929000000    -3.778000000
C     4.760000000     4.628000000    -3.318000000
H     5.349000000     5.118000000    -2.546000000
C     5.279000000     4.175000000    -4.559000000
H     6.319000000     4.309000000    -4.847000000
C     4.502000000     3.549000000    -5.489000000
H     4.818000000     3.370000000    -6.514000000
C     3.159000000     3.407000000    -5.247000000
O     2.325000000     2.870000000    -6.245000000
C     1.708000000     1.679000000    -6.015000000
C     0.403000000     1.568000000    -6.504000000
H    -0.114000000     2.410000000    -6.958000000
C    -0.365000000     0.425000000    -6.268000000
O    -1.653000000     0.351000000    -6.723000000
C    -2.561000000    -0.592000000    -6.348000000
C    -2.648000000    -1.843000000    -7.050000000
H    -1.939000000    -1.983000000    -7.861000000
C    -3.594000000    -2.790000000    -6.585000000
H    -3.535000000    -3.778000000    -7.035000000
C    -4.473000000    -2.523000000    -5.558000000
H    -5.232000000    -3.197000000    -5.169000000
C    -4.546000000    -1.228000000    -5.020000000
C    -3.581000000    -0.260000000    -5.418000000
H    -3.540000000     0.713000000    -4.934000000
C    -1.953000000     1.228000000    -2.143000000
H    -2.035000000     1.356000000    -3.219000000
C    -1.043000000     0.225000000    -1.798000000
H    -0.460000000    -0.214000000    -2.603000000
C    -0.834000000    -0.111000000    -0.471000000
H    -0.051000000    -0.858000000    -0.283000000
C    -1.603000000     0.472000000     0.493000000
H    -1.465000000     0.124000000     1.513000000
C    -2.608000000     1.314000000     0.137000000
H    -3.158000000     1.768000000     0.957000000
C    -2.813000000     1.751000000    -1.170000000
C    -3.916000000     2.686000000    -1.621000000
O    -4.776000000     3.023000000    -0.845000000
O    -3.897000000     3.085000000    -2.743000000
O    -4.331000000     7.048000000    -0.883000000
H    -3.753000000     6.396000000    -1.280000000
H    -5.161000000     6.946000000    -1.348000000
O    -5.462000000     4.948000000    -3.983000000
H    -4.685000000     5.161000000    -4.500000000
H    -5.147000000     4.334000000    -3.319000000
O    -0.382000000     6.799000000    -0.571000000
H    -0.707000000     6.000000000    -0.986000000
H    -1.017000000     6.986000000     0.120000000
O    -2.106000000     4.911000000     1.243000000
H    -2.115000000     5.818000000     1.548000000
H    -3.010000000     4.739000000     0.976000000
O    -3.640000000     5.507000000    -5.859000000
H    -3.425000000     5.016000000    -6.652000000
H    -3.923000000     6.364000000    -6.178000000
O    -9.376000000     4.120000000    -1.982000000
H    -9.341000000     4.112000000    -2.939000000
H    -8.493000000     3.874000000    -1.708000000
O    -5.954000000     2.139000000    -4.471000000
H    -5.274000000     2.569000000    -3.952000000
H    -5.799000000     1.203000000    -4.340000000
O    -8.017000000     4.472000000    -4.477000000
H    -8.046000000     3.591000000    -4.851000000
H    -7.121000000     4.564000000    -4.153000000
O    -8.506000000     1.916000000    -5.216000000
H    -8.501000000     1.301000000    -5.950000000
H    -7.618000000     1.873000000    -4.861000000
O    -9.012000000     1.214000000    -0.619000000
H    -8.504000000     1.902000000    -1.049000000
H    -8.366000000     0.544000000    -0.396000000
O    -4.979000000     4.876000000     1.360000000
H    -5.869000000     5.147000000     1.584000000
H    -5.080000000     4.354000000     0.564000000
O    -0.577000000     6.464000000    -4.283000000
H    -0.677000000     5.732000000    -3.675000000
H    -1.273000000     7.074000000    -4.040000000
O    -0.716000000     4.248000000    -2.632000000
H    -0.257000000     4.021000000    -1.823000000
H    -1.406000000     3.589000000    -2.709000000
O    -7.264000000     6.508000000     0.149000000
H    -7.011000000     6.675000000    -0.759000000
H    -6.731000000     7.116000000     0.662000000
O    -5.602000000     2.999000000    -7.128000000
H    -5.320000000     2.552000000    -6.330000000
H    -6.011000000     3.807000000    -6.817000000
O    -7.314000000     3.237000000    -0.818000000
H    -6.368000000     3.218000000    -0.959000000
H    -7.422000000     3.033000000     0.111000000
O    -2.393000000     3.128000000    -4.766000000
H    -2.378000000     4.001000000    -5.159000000
H    -2.914000000     3.233000000    -3.970000000
O    -6.697000000     7.092000000    -2.435000000
H    -6.497000000     6.341000000    -2.993000000
H    -6.669000000     7.844000000    -3.026000000
O    -0.339000000     3.518000000    -0.140000000
H    -0.864000000     4.010000000     0.491000000
H    -0.485000000     2.600000000     0.089000000
