215
-1471.51255
C    -0.802000000     2.567000000     4.307000000
H     0.244000000     2.806000000     4.133000000
C    -1.251000000     1.225000000     4.340000000
C    -2.603000000     0.915000000     4.387000000
H    -3.025000000    -0.076000000     4.530000000
C    -0.207000000     0.073000000     4.221000000
O     1.049000000     0.201000000     4.955000000
H     0.102000000     0.007000000     3.168000000
O    -0.810000000    -1.168000000     4.672000000
C    -0.721000000    -2.269000000     3.830000000
C    -1.795000000    -2.569000000     3.025000000
H    -2.649000000    -1.905000000     3.136000000
C    -1.734000000    -3.631000000     2.155000000
O    -2.741000000    -3.746000000     1.206000000
C    -0.558000000    -4.363000000     2.038000000
C    -0.438000000    -5.543000000     1.039000000
H     0.194000000    -6.344000000     1.428000000
C    -0.050000000    -4.974000000    -0.303000000
C     1.291000000    -4.737000000    -0.582000000
H     2.037000000    -5.048000000     0.145000000
H    -1.398000000    -6.062000000     1.008000000
C     0.504000000    -4.055000000     2.858000000
H     1.391000000    -4.683000000     2.824000000
C     0.442000000    -3.065000000     3.793000000
C     1.662000000    -2.579000000     4.589000000
H     2.387000000    -3.383000000     4.735000000
H     1.375000000    -2.355000000     5.618000000
C     2.481000000    -1.476000000     3.987000000
C     3.552000000    -1.714000000     3.137000000
H     3.761000000    -2.765000000     2.956000000
C     2.239000000    -0.142000000     4.336000000
C     2.980000000     0.897000000     3.767000000
H     2.692000000     1.900000000     4.070000000
C     3.961000000     0.601000000     2.791000000
O     4.391000000     1.678000000     2.080000000
C     3.840000000     1.832000000     0.724000000
C     3.491000000     3.299000000     0.494000000
C     3.339000000     3.690000000    -0.838000000
H     3.413000000     2.945000000    -1.627000000
C     3.217000000     4.217000000     1.510000000
H     3.404000000     3.929000000     2.542000000
O     4.722000000     1.322000000    -0.315000000
H     2.924000000     1.224000000     0.722000000
C     4.161000000    -0.722000000     2.431000000
C     5.304000000    -0.937000000     1.407000000
H     5.805000000    -1.874000000     1.659000000
H     6.043000000    -0.133000000     1.376000000
C     4.731000000    -1.096000000    -0.004000000
C     4.142000000    -2.315000000    -0.366000000
H     4.182000000    -3.168000000     0.307000000
C     4.565000000     0.041000000    -0.811000000
C     3.915000000    -0.061000000    -2.039000000
H     3.780000000     0.849000000    -2.618000000
C     3.453000000    -1.272000000    -2.521000000
O     2.751000000    -1.301000000    -3.678000000
C     1.356000000    -1.528000000    -3.680000000
C     0.764000000    -0.645000000    -4.866000000
C     1.263000000     0.655000000    -5.057000000
H     2.052000000     0.964000000    -4.376000000
C    -0.316000000    -1.009000000    -5.642000000
H    -0.728000000    -1.977000000    -5.366000000
O     1.051000000    -2.951000000    -3.784000000
H     0.948000000    -1.255000000    -2.696000000
C     3.577000000    -2.385000000    -1.647000000
C     3.098000000    -3.737000000    -2.126000000
H     3.690000000    -4.584000000    -1.771000000
H     3.128000000    -3.731000000    -3.218000000
C     1.675000000    -4.097000000    -1.763000000
C     0.642000000    -3.663000000    -2.643000000
C    -0.687000000    -3.943000000    -2.457000000
H    -1.471000000    -3.733000000    -3.180000000
C    -1.026000000    -4.604000000    -1.292000000
O    -2.361000000    -4.511000000    -0.902000000
C    -2.658000000    -3.296000000    -0.158000000
H    -1.815000000    -2.591000000    -0.114000000
C    -3.899000000    -2.591000000    -0.687000000
C    -4.764000000    -2.020000000     0.240000000
H    -4.484000000    -2.041000000     1.290000000
C    -4.167000000    -2.413000000    -2.019000000
H    -3.497000000    -2.810000000    -2.777000000
C    -5.329000000    -1.723000000    -2.437000000
O    -5.504000000    -1.393000000    -3.763000000
C    -6.072000000    -1.019000000    -1.533000000
H    -6.828000000    -0.339000000    -1.916000000
C    -5.881000000    -1.229000000    -0.180000000
O    -6.709000000    -0.657000000     0.750000000
C    -6.317000000    -0.567000000     2.104000000
C    -5.736000000     0.558000000     2.576000000
H    -5.594000000     1.359000000     1.855000000
C    -6.664000000    -1.626000000     2.989000000
H    -7.140000000    -2.537000000     2.633000000
C    -6.290000000    -1.567000000     4.326000000
H    -6.624000000    -2.395000000     4.946000000
C    -5.612000000    -0.498000000     4.781000000
H    -5.223000000    -0.431000000     5.794000000
C    -5.394000000     0.665000000     3.994000000
O    -4.836000000     1.779000000     4.543000000
C    -3.468000000     2.018000000     4.538000000
C    -3.043000000     3.327000000     4.509000000
H    -3.717000000     4.172000000     4.624000000
C    -1.692000000     3.565000000     4.367000000
O    -1.273000000     4.847000000     4.339000000
C     0.024000000     5.294000000     4.500000000
C     0.654000000     5.625000000     3.319000000
H     0.170000000     5.512000000     2.352000000
C     0.641000000     5.413000000     5.766000000
H     0.155000000     5.154000000     6.703000000
C     1.965000000     5.891000000     5.740000000
H     2.597000000     5.909000000     6.624000000
C     2.613000000     6.189000000     4.537000000
H     3.630000000     6.571000000     4.573000000
C     1.911000000     6.077000000     3.384000000
O     2.652000000     6.439000000     2.208000000
C     2.856000000     5.503000000     1.189000000
C     2.622000000     5.851000000    -0.118000000
H     2.048000000     6.752000000    -0.322000000
C     2.792000000     4.970000000    -1.105000000
O     2.422000000     5.274000000    -2.404000000
C     2.852000000     4.624000000    -3.503000000
C     1.938000000     4.105000000    -4.372000000
H     0.885000000     4.206000000    -4.122000000
C     4.196000000     4.582000000    -3.802000000
H     4.910000000     5.150000000    -3.211000000
C     4.622000000     3.998000000    -5.024000000
H     5.658000000     4.077000000    -5.343000000
C     3.703000000     3.260000000    -5.820000000
H     3.985000000     2.615000000    -6.648000000
C     2.333000000     3.304000000    -5.481000000
O     1.440000000     2.646000000    -6.336000000
C     0.808000000     1.486000000    -6.083000000
C    -0.257000000     1.082000000    -6.868000000
H    -0.730000000     1.828000000    -7.502000000
C    -0.859000000    -0.158000000    -6.616000000
O    -2.105000000    -0.443000000    -7.081000000
C    -2.934000000    -1.439000000    -6.484000000
C    -3.003000000    -2.791000000    -6.836000000
H    -2.397000000    -3.244000000    -7.617000000
C    -3.932000000    -3.586000000    -6.227000000
H    -3.951000000    -4.661000000    -6.387000000
C    -4.796000000    -3.095000000    -5.263000000
H    -5.504000000    -3.792000000    -4.822000000
C    -4.686000000    -1.804000000    -4.807000000
C    -3.805000000    -0.950000000    -5.456000000
H    -3.700000000     0.058000000    -5.064000000
C    -2.936000000     0.800000000    -1.699000000
H    -3.402000000     0.864000000    -2.679000000
C    -1.715000000     0.064000000    -1.588000000
H    -1.313000000    -0.495000000    -2.428000000
C    -1.070000000    -0.064000000    -0.337000000
H    -0.252000000    -0.739000000    -0.261000000
C    -1.617000000     0.581000000     0.765000000
H    -1.190000000     0.314000000     1.728000000
C    -2.709000000     1.475000000     0.638000000
H    -3.042000000     2.071000000     1.485000000
C    -3.366000000     1.531000000    -0.605000000
C    -4.505000000     2.572000000    -0.711000000
O    -5.039000000     3.065000000     0.213000000
O    -4.757000000     3.035000000    -1.800000000
O    -2.786000000     3.800000000    -3.374000000
H    -1.979000000     3.591000000    -2.903000000
H    -3.485000000     3.467000000    -2.811000000
O    -2.729000000     4.583000000     1.145000000
H    -2.899000000     4.779000000     2.067000000
H    -3.566000000     4.262000000     0.810000000
O    -5.924000000     3.805000000    -4.027000000
H    -5.419000000     3.539000000    -3.259000000
H    -5.321000000     3.690000000    -4.762000000
O    -6.250000000     5.275000000    -1.474000000
H    -5.782000000     4.440000000    -1.468000000
H    -6.492000000     5.408000000    -2.390000000
O    -8.367000000     2.392000000    -4.108000000
H    -7.499000000     2.768000000    -3.964000000
H    -8.808000000     3.019000000    -4.682000000
O    -7.022000000     7.371000000    -0.014000000
H    -7.541000000     7.908000000    -0.613000000
H    -6.653000000     6.683000000    -0.567000000
O   -10.248000000     2.288000000    -0.467000000
H   -10.296000000     1.333000000    -0.430000000
H    -9.332000000     2.474000000    -0.675000000
O    -4.267000000     8.447000000    -0.653000000
H    -5.116000000     8.246000000    -1.047000000
H    -3.708000000     7.710000000    -0.899000000
O    -3.558000000     3.698000000    -5.988000000
H    -3.245000000     3.564000000    -5.094000000
H    -3.035000000     4.429000000    -6.319000000
O    -6.333000000     4.979000000     1.507000000
H    -6.569000000     5.746000000     0.986000000
H    -5.915000000     4.385000000     0.883000000
O    -1.512000000     6.445000000    -0.467000000
H    -2.007000000     5.834000000     0.079000000
H    -0.953000000     6.919000000     0.150000000
O    -4.172000000     6.245000000     3.198000000
H    -4.291000000     6.990000000     3.787000000
H    -5.056000000     6.036000000     2.895000000
O    -0.477000000     2.863000000    -2.080000000
H     0.023000000     3.001000000    -1.275000000
H    -1.028000000     2.103000000    -1.893000000
O    -7.160000000     3.806000000     3.749000000
H    -6.420000000     3.311000000     4.101000000
H    -6.853000000     4.124000000     2.900000000
O    -9.350000000     5.282000000     1.991000000
H    -9.951000000     4.538000000     1.965000000
H    -8.550000000     4.958000000     1.577000000
O    -9.270000000     0.186000000    -2.918000000
H    -9.127000000    -0.233000000    -3.767000000
H    -8.934000000     1.075000000    -3.031000000
O    -7.605000000     3.168000000    -0.321000000
H    -7.437000000     3.897000000    -0.917000000
H    -6.734000000     2.865000000    -0.061000000
O    -0.102000000     3.171000000     0.646000000
H    -0.631000000     3.789000000     1.151000000
H    -0.601000000     2.355000000     0.670000000
O    -2.433000000     6.491000000    -3.036000000
H    -2.607000000     5.630000000    -3.416000000
H    -2.145000000     6.304000000    -2.142000000
