215
-1451.77435
C    -1.621000000     2.311000000     3.985000000
H    -0.540000000     2.259000000     4.090000000
C    -2.381000000     1.167000000     4.010000000
C    -3.780000000     1.231000000     3.873000000
H    -4.303000000     0.288000000     3.736000000
C    -1.610000000    -0.176000000     4.048000000
O    -0.604000000    -0.224000000     5.039000000
H    -1.190000000    -0.336000000     3.044000000
O    -2.528000000    -1.260000000     4.259000000
C    -2.386000000    -2.399000000     3.498000000
C    -3.229000000    -2.518000000     2.386000000
H    -3.994000000    -1.803000000     2.094000000
C    -2.870000000    -3.459000000     1.377000000
O    -3.614000000    -3.435000000     0.245000000
C    -1.793000000    -4.244000000     1.550000000
C    -1.415000000    -5.327000000     0.532000000
H    -0.754000000    -6.062000000     0.997000000
C    -0.644000000    -4.710000000    -0.627000000
C     0.809000000    -4.715000000    -0.458000000
H     1.265000000    -5.195000000     0.404000000
H    -2.297000000    -5.876000000     0.196000000
C    -0.935000000    -4.127000000     2.672000000
H    -0.143000000    -4.853000000     2.838000000
C    -1.251000000    -3.206000000     3.647000000
C    -0.329000000    -3.042000000     4.803000000
H     0.128000000    -4.008000000     5.029000000
H    -0.992000000    -2.710000000     5.604000000
C     0.757000000    -2.046000000     4.385000000
C     2.038000000    -2.430000000     3.854000000
H     2.279000000    -3.469000000     3.645000000
C     0.572000000    -0.691000000     4.541000000
C     1.543000000     0.225000000     4.219000000
H     1.457000000     1.285000000     4.439000000
C     2.692000000    -0.145000000     3.602000000
O     3.608000000     0.890000000     3.329000000
C     3.802000000     1.126000000     1.893000000
C     3.869000000     2.539000000     1.545000000
C     4.498000000     2.932000000     0.342000000
H     4.928000000     2.207000000    -0.344000000
C     3.290000000     3.600000000     2.261000000
H     2.956000000     3.288000000     3.247000000
O     4.911000000     0.337000000     1.328000000
H     2.979000000     0.759000000     1.262000000
C     2.941000000    -1.504000000     3.499000000
C     4.308000000    -2.007000000     2.969000000
H     4.517000000    -3.020000000     3.319000000
H     5.076000000    -1.327000000     3.342000000
C     4.322000000    -2.002000000     1.443000000
C     3.869000000    -3.163000000     0.813000000
H     3.498000000    -4.042000000     1.334000000
C     4.619000000    -0.857000000     0.731000000
C     4.537000000    -0.856000000    -0.703000000
H     4.874000000     0.029000000    -1.237000000
C     4.052000000    -1.995000000    -1.342000000
O     3.764000000    -1.752000000    -2.652000000
C     2.309000000    -1.736000000    -3.165000000
C     2.061000000    -0.631000000    -4.223000000
C     2.656000000     0.582000000    -4.049000000
H     3.360000000     0.736000000    -3.236000000
C     1.278000000    -0.940000000    -5.328000000
H     0.928000000    -1.944000000    -5.552000000
O     1.796000000    -3.044000000    -3.552000000
H     1.676000000    -1.385000000    -2.336000000
C     3.751000000    -3.163000000    -0.606000000
C     3.095000000    -4.282000000    -1.404000000
H     3.326000000    -5.245000000    -0.946000000
H     3.462000000    -4.401000000    -2.425000000
C     1.564000000    -4.129000000    -1.471000000
C     1.000000000    -3.694000000    -2.638000000
C    -0.356000000    -3.649000000    -2.759000000
H    -0.812000000    -3.215000000    -3.645000000
C    -1.209000000    -4.171000000    -1.770000000
O    -2.576000000    -3.955000000    -1.798000000
C    -3.010000000    -2.872000000    -0.922000000
H    -2.145000000    -2.284000000    -0.581000000
C    -3.835000000    -1.875000000    -1.666000000
C    -4.633000000    -0.993000000    -0.919000000
H    -4.779000000    -1.217000000     0.134000000
C    -3.793000000    -1.807000000    -3.077000000
H    -3.143000000    -2.460000000    -3.653000000
C    -4.515000000    -0.786000000    -3.642000000
O    -4.405000000    -0.581000000    -4.979000000
C    -5.251000000     0.112000000    -2.880000000
H    -5.847000000     0.867000000    -3.386000000
C    -5.297000000     0.072000000    -1.558000000
O    -6.075000000     0.921000000    -0.860000000
C    -6.391000000     0.867000000     0.496000000
C    -5.872000000     1.826000000     1.315000000
H    -5.173000000     2.533000000     0.876000000
C    -7.316000000    -0.078000000     0.884000000
H    -7.830000000    -0.678000000     0.137000000
C    -7.871000000     0.049000000     2.138000000
H    -8.682000000    -0.623000000     2.404000000
C    -7.309000000     0.978000000     3.058000000
H    -7.534000000     0.993000000     4.121000000
C    -6.291000000     1.828000000     2.691000000
O    -5.781000000     2.506000000     3.691000000
C    -4.452000000     2.421000000     3.749000000
C    -3.699000000     3.593000000     3.824000000
H    -4.097000000     4.604000000     3.856000000
C    -2.291000000     3.565000000     3.870000000
O    -1.654000000     4.760000000     3.984000000
C    -0.350000000     5.008000000     4.260000000
C     0.518000000     5.403000000     3.211000000
H     0.261000000     5.420000000     2.155000000
C     0.102000000     4.861000000     5.596000000
H    -0.646000000     4.657000000     6.357000000
C     1.357000000     5.265000000     5.990000000
H     1.778000000     5.199000000     6.990000000
C     2.185000000     5.678000000     4.949000000
H     3.213000000     5.925000000     5.201000000
C     1.802000000     5.668000000     3.607000000
O     2.764000000     5.996000000     2.676000000
C     3.338000000     4.955000000     1.924000000
C     4.011000000     5.317000000     0.798000000
H     3.988000000     6.358000000     0.488000000
C     4.523000000     4.301000000     0.028000000
O     5.286000000     4.671000000    -1.100000000
C     5.192000000     4.072000000    -2.359000000
C     3.954000000     3.661000000    -2.959000000
H     2.992000000     3.743000000    -2.460000000
C     6.304000000     3.957000000    -3.186000000
H     7.245000000     4.248000000    -2.726000000
C     6.260000000     3.367000000    -4.465000000
H     7.175000000     3.138000000    -5.006000000
C     5.052000000     2.960000000    -4.952000000
H     4.950000000     2.654000000    -5.990000000
C     3.911000000     3.191000000    -4.238000000
O     2.685000000     2.923000000    -4.771000000
C     2.186000000     1.641000000    -4.871000000
C     1.232000000     1.385000000    -5.843000000
H     0.807000000     2.162000000    -6.473000000
C     0.742000000     0.089000000    -6.068000000
O    -0.205000000    -0.130000000    -7.103000000
C    -1.330000000    -0.925000000    -6.874000000
C    -1.647000000    -1.972000000    -7.789000000
H    -1.050000000    -2.112000000    -8.687000000
C    -2.888000000    -2.586000000    -7.724000000
H    -3.235000000    -3.253000000    -8.509000000
C    -3.771000000    -2.243000000    -6.643000000
H    -4.736000000    -2.725000000    -6.513000000
C    -3.497000000    -1.127000000    -5.884000000
C    -2.249000000    -0.525000000    -5.897000000
H    -2.134000000     0.329000000    -5.233000000
C     0.642000000     1.302000000    -1.276000000
H     1.471000000     1.698000000    -1.856000000
C     0.861000000     0.218000000    -0.446000000
H     1.886000000    -0.119000000    -0.318000000
C    -0.197000000    -0.327000000     0.295000000
H     0.052000000    -1.118000000     1.073000000
C    -1.428000000     0.253000000     0.285000000
H    -2.250000000    -0.169000000     0.858000000
C    -1.613000000     1.448000000    -0.451000000
H    -2.601000000     1.902000000    -0.452000000
C    -0.631000000     1.928000000    -1.340000000
C    -0.970000000     3.224000000    -2.176000000
O    -2.140000000     3.351000000    -2.474000000
O    -0.109000000     4.050000000    -2.449000000
O    -4.275000000     4.258000000    -1.600000000
H    -3.908000000     4.685000000    -0.826000000
H    -3.514000000     3.914000000    -2.068000000
O    -0.154000000     6.928000000    -6.370000000
H    -0.606000000     6.208000000    -5.932000000
H    -0.816000000     7.615000000    -6.449000000
O     0.570000000     8.582000000    -0.199000000
H     0.199000000     7.747000000    -0.485000000
H     0.130000000     9.238000000    -0.740000000
O    -3.802000000     3.081000000    -4.638000000
H    -3.187000000     3.125000000    -3.905000000
H    -4.666000000     3.091000000    -4.227000000
O    -2.683000000     5.156000000    -5.884000000
H    -3.329000000     5.794000000    -5.581000000
H    -3.142000000     4.316000000    -5.849000000
O    -2.818000000     8.147000000    -1.165000000
H    -2.564000000     7.799000000    -2.020000000
H    -3.469000000     8.820000000    -1.364000000
O     1.653000000     5.953000000    -2.238000000
H     1.040000000     6.668000000    -2.408000000
H     1.094000000     5.200000000    -2.043000000
O    -1.385000000     7.544000000     1.980000000
H    -1.398000000     8.500000000     2.034000000
H    -0.750000000     7.352000000     1.290000000
O    -0.311000000     4.448000000    -4.965000000
H    -1.252000000     4.386000000    -5.133000000
H    -0.231000000     4.360000000    -4.015000000
O    -4.065000000     2.643000000    -7.475000000
H    -4.670000000     3.383000000    -7.526000000
H    -4.096000000     2.370000000    -6.558000000
O    -4.666000000     6.489000000    -4.541000000
H    -5.255000000     7.194000000    -4.271000000
H    -4.009000000     6.447000000    -3.846000000
O    -0.441000000     7.968000000    -3.584000000
H    -0.087000000     7.440000000    -4.300000000
H    -0.101000000     8.848000000    -3.745000000
O    -3.298000000     4.919000000     0.896000000
H    -3.088000000     4.253000000     1.551000000
H    -2.692000000     5.637000000     1.082000000
O    -2.305000000     6.033000000    -2.927000000
H    -1.496000000     6.453000000    -3.217000000
H    -2.114000000     5.096000000    -2.959000000
O     0.290000000     4.253000000    -7.664000000
H     0.137000000     4.494000000    -6.750000000
H     1.065000000     4.755000000    -7.917000000
O     4.101000000     7.224000000    -2.211000000
H     4.841000000     6.630000000    -2.340000000
H     3.347000000     6.646000000    -2.099000000
O    -0.771000000     6.124000000    -0.295000000
H    -1.672000000     6.446000000    -0.335000000
H    -0.796000000     5.285000000    -0.756000000
O     2.726000000     6.042000000    -5.156000000
H     2.946000000     6.694000000    -4.491000000
H     1.850000000     5.741000000    -4.917000000
O    -6.524000000     3.410000000    -2.807000000
H    -5.715000000     3.853000000    -2.551000000
H    -7.137000000     3.603000000    -2.098000000
