215
-1438.59743
C    -1.127000000     2.104000000     3.732000000
H    -0.060000000     2.096000000     3.522000000
C    -1.772000000     0.926000000     4.067000000
C    -3.154000000     1.002000000     4.354000000
H    -3.718000000     0.093000000     4.548000000
C    -1.044000000    -0.405000000     4.055000000
O     0.145000000    -0.367000000     4.877000000
H    -0.721000000    -0.579000000     3.017000000
O    -1.946000000    -1.463000000     4.428000000
C    -1.855000000    -2.490000000     3.558000000
C    -2.823000000    -2.504000000     2.523000000
H    -3.614000000    -1.759000000     2.502000000
C    -2.669000000    -3.446000000     1.504000000
O    -3.509000000    -3.267000000     0.372000000
C    -1.560000000    -4.315000000     1.439000000
C    -1.442000000    -5.356000000     0.364000000
H    -0.951000000    -6.243000000     0.769000000
C    -0.649000000    -4.805000000    -0.825000000
C     0.779000000    -4.952000000    -0.857000000
H     1.190000000    -5.443000000     0.021000000
H    -2.429000000    -5.707000000     0.054000000
C    -0.679000000    -4.327000000     2.505000000
H     0.097000000    -5.087000000     2.485000000
C    -0.757000000    -3.409000000     3.590000000
C     0.391000000    -3.251000000     4.570000000
H     0.932000000    -4.185000000     4.736000000
H    -0.145000000    -2.910000000     5.458000000
C     1.490000000    -2.178000000     4.148000000
C     2.605000000    -2.584000000     3.371000000
H     2.814000000    -3.642000000     3.237000000
C     1.322000000    -0.822000000     4.442000000
C     2.293000000     0.098000000     4.054000000
H     2.241000000     1.161000000     4.273000000
C     3.422000000    -0.306000000     3.404000000
O     4.186000000     0.711000000     2.846000000
C     4.076000000     0.999000000     1.450000000
C     4.192000000     2.501000000     1.200000000
C     4.491000000     2.979000000    -0.125000000
H     4.663000000     2.331000000    -0.981000000
C     3.960000000     3.397000000     2.268000000
H     3.772000000     3.023000000     3.271000000
O     4.996000000     0.229000000     0.714000000
H     3.038000000     0.827000000     1.129000000
C     3.591000000    -1.646000000     3.055000000
C     4.735000000    -2.154000000     2.282000000
H     4.741000000    -3.211000000     2.557000000
H     5.686000000    -1.654000000     2.474000000
C     4.396000000    -2.087000000     0.781000000
C     4.008000000    -3.296000000     0.062000000
H     3.941000000    -4.199000000     0.663000000
C     4.593000000    -0.903000000     0.127000000
C     4.347000000    -0.878000000    -1.238000000
H     4.637000000     0.037000000    -1.748000000
C     3.795000000    -1.942000000    -1.930000000
O     3.397000000    -1.730000000    -3.245000000
C     1.965000000    -1.578000000    -3.380000000
C     1.550000000    -0.497000000    -4.370000000
C     2.286000000     0.662000000    -4.380000000
H     3.088000000     0.723000000    -3.649000000
C     0.403000000    -0.537000000    -5.141000000
H    -0.238000000    -1.415000000    -5.157000000
O     1.398000000    -2.872000000    -3.787000000
H     1.543000000    -1.345000000    -2.392000000
C     3.647000000    -3.193000000    -1.271000000
C     3.005000000    -4.400000000    -1.919000000
H     3.324000000    -5.270000000    -1.342000000
H     3.411000000    -4.515000000    -2.926000000
C     1.463000000    -4.338000000    -1.896000000
C     0.779000000    -3.680000000    -2.900000000
C    -0.554000000    -3.606000000    -2.871000000
H    -1.104000000    -2.976000000    -3.565000000
C    -1.257000000    -4.034000000    -1.787000000
O    -2.585000000    -3.603000000    -1.803000000
C    -3.105000000    -2.582000000    -0.886000000
H    -2.272000000    -1.932000000    -0.580000000
C    -4.232000000    -1.727000000    -1.419000000
C    -4.942000000    -0.915000000    -0.555000000
H    -4.625000000    -0.808000000     0.479000000
C    -4.461000000    -1.582000000    -2.782000000
H    -3.960000000    -2.178000000    -3.540000000
C    -5.439000000    -0.690000000    -3.229000000
O    -5.622000000    -0.522000000    -4.570000000
C    -6.193000000     0.020000000    -2.343000000
H    -6.950000000     0.661000000    -2.787000000
C    -5.929000000    -0.085000000    -1.001000000
O    -6.531000000     0.780000000    -0.117000000
C    -6.577000000     0.750000000     1.249000000
C    -5.933000000     1.664000000     2.039000000
H    -5.412000000     2.450000000     1.497000000
C    -7.388000000    -0.228000000     1.802000000
H    -7.824000000    -0.961000000     1.127000000
C    -7.588000000    -0.361000000     3.217000000
H    -8.247000000    -1.103000000     3.659000000
C    -6.854000000     0.554000000     3.997000000
H    -6.866000000     0.435000000     5.077000000
C    -5.982000000     1.486000000     3.390000000
O    -5.229000000     2.310000000     4.228000000
C    -3.824000000     2.224000000     4.187000000
C    -3.087000000     3.424000000     4.032000000
H    -3.586000000     4.389000000     3.975000000
C    -1.703000000     3.321000000     3.734000000
O    -0.957000000     4.400000000     3.357000000
C     0.179000000     4.870000000     3.955000000
C     1.343000000     4.849000000     3.247000000
H     1.267000000     4.352000000     2.284000000
C     0.069000000     5.357000000     5.292000000
H    -0.841000000     5.336000000     5.885000000
C     1.117000000     6.064000000     5.813000000
H     0.965000000     6.371000000     6.844000000
C     2.292000000     6.132000000     5.064000000
H     3.111000000     6.774000000     5.378000000
C     2.429000000     5.519000000     3.799000000
O     3.623000000     5.664000000     3.025000000
C     3.881000000     4.792000000     2.019000000
C     4.337000000     5.239000000     0.767000000
H     4.393000000     6.317000000     0.641000000
C     4.583000000     4.381000000    -0.318000000
O     4.681000000     5.036000000    -1.518000000
C     4.792000000     4.275000000    -2.639000000
C     3.640000000     3.951000000    -3.313000000
H     2.686000000     4.323000000    -2.948000000
C     6.029000000     3.672000000    -3.009000000
H     6.987000000     3.904000000    -2.551000000
C     6.100000000     3.055000000    -4.241000000
H     7.019000000     2.751000000    -4.735000000
C     4.962000000     2.764000000    -4.923000000
H     5.025000000     2.282000000    -5.895000000
C     3.729000000     3.151000000    -4.470000000
O     2.604000000     2.946000000    -5.186000000
C     1.883000000     1.776000000    -5.131000000
C     0.737000000     1.746000000    -5.880000000
H     0.439000000     2.572000000    -6.520000000
C    -0.088000000     0.592000000    -5.785000000
O    -1.284000000     0.552000000    -6.563000000
C    -2.369000000    -0.309000000    -6.388000000
C    -2.583000000    -1.371000000    -7.338000000
H    -1.754000000    -1.537000000    -8.022000000
C    -3.717000000    -2.201000000    -7.234000000
H    -3.767000000    -3.113000000    -7.823000000
C    -4.720000000    -1.895000000    -6.307000000
H    -5.635000000    -2.476000000    -6.237000000
C    -4.610000000    -0.798000000    -5.467000000
C    -3.369000000    -0.109000000    -5.415000000
H    -3.272000000     0.721000000    -4.719000000
C     0.560000000     2.264000000    -1.156000000
H     1.084000000     3.189000000    -1.382000000
C     1.218000000     1.064000000    -0.803000000
H     2.288000000     1.001000000    -0.984000000
C     0.589000000    -0.040000000    -0.217000000
H     1.079000000    -0.902000000     0.098000000
C    -0.770000000     0.097000000     0.028000000
H    -1.313000000    -0.746000000     0.448000000
C    -1.528000000     1.265000000    -0.411000000
H    -2.611000000     1.230000000    -0.324000000
C    -0.819000000     2.330000000    -0.966000000
C    -1.595000000     3.573000000    -1.454000000
O    -2.795000000     3.637000000    -1.381000000
O    -0.951000000     4.490000000    -1.911000000
O    -5.546000000     4.474000000    -0.719000000
H    -5.446000000     4.750000000     0.192000000
H    -4.751000000     3.973000000    -0.906000000
O     0.855000000     8.391000000     1.155000000
H     1.044000000     9.002000000     0.443000000
H     0.521000000     7.608000000     0.717000000
O    -6.716000000     6.056000000    -2.659000000
H    -7.144000000     6.748000000    -2.157000000
H    -6.008000000     5.751000000    -2.091000000
O     2.998000000     7.239000000    -2.274000000
H     2.163000000     6.812000000    -2.465000000
H     3.613000000     6.517000000    -2.147000000
O    -3.863000000     3.467000000    -4.106000000
H    -3.819000000     3.438000000    -3.150000000
H    -4.784000000     3.643000000    -4.298000000
O    -1.442000000     5.470000000    -7.089000000
H    -2.286000000     5.922000000    -7.083000000
H    -1.280000000     5.252000000    -6.171000000
O    -4.444000000     8.376000000    -0.825000000
H    -4.378000000     7.718000000    -1.518000000
H    -5.383000000     8.540000000    -0.739000000
O     0.280000000     6.813000000    -3.196000000
H    -0.479000000     7.282000000    -3.543000000
H    -0.057000000     5.944000000    -2.974000000
O    -4.206000000     7.036000000    -6.297000000
H    -4.890000000     6.396000000    -6.099000000
H    -4.674000000     7.866000000    -6.391000000
O    -2.648000000     8.965000000     1.156000000
H    -2.496000000     9.910000000     1.161000000
H    -3.009000000     8.785000000     0.289000000
O    -1.156000000     4.123000000    -4.545000000
H    -2.113000000     4.143000000    -4.530000000
H    -0.910000000     3.834000000    -3.666000000
O    -5.816000000     2.662000000    -5.942000000
H    -5.846000000     2.690000000    -6.899000000
H    -5.188000000     1.968000000    -5.742000000
O    -2.177000000     7.842000000    -4.554000000
H    -2.591000000     8.104000000    -5.376000000
H    -2.734000000     7.140000000    -4.218000000
O    -4.834000000     5.414000000     1.648000000
H    -5.534000000     5.494000000     2.295000000
H    -4.303000000     6.200000000     1.771000000
O    -8.165000000     4.027000000    -0.890000000
H    -8.590000000     4.350000000    -1.684000000
H    -7.234000000     4.206000000    -1.027000000
O    -3.355000000     6.213000000    -2.214000000
H    -2.855000000     6.703000000    -1.562000000
H    -3.392000000     5.321000000    -1.867000000
O    -2.607000000     7.789000000     3.557000000
H    -2.630000000     8.208000000     2.696000000
H    -1.769000000     8.059000000     3.932000000
O    -0.388000000     6.230000000    -0.092000000
H    -1.066000000     6.026000000     0.552000000
H    -0.474000000     5.546000000    -0.756000000
O     2.331000000     6.528000000    -5.104000000
H     1.860000000     6.699000000    -4.289000000
H     1.820000000     6.982000000    -5.775000000
