215
-1438.57054
C    -1.401000000     1.942000000     5.210000000
H    -0.329000000     2.064000000     5.343000000
C    -1.953000000     0.762000000     4.712000000
C    -3.235000000     0.804000000     4.245000000
H    -3.676000000     0.119000000     3.527000000
C    -1.033000000    -0.392000000     4.202000000
O     0.178000000    -0.453000000     5.018000000
H    -0.797000000    -0.233000000     3.140000000
O    -1.772000000    -1.605000000     4.309000000
C    -1.609000000    -2.591000000     3.322000000
C    -2.561000000    -2.753000000     2.308000000
H    -3.370000000    -2.032000000     2.222000000
C    -2.372000000    -3.750000000     1.367000000
O    -3.269000000    -3.594000000     0.344000000
C    -1.187000000    -4.508000000     1.348000000
C    -0.893000000    -5.522000000     0.255000000
H    -0.414000000    -6.422000000     0.647000000
C    -0.203000000    -4.853000000    -0.872000000
C     1.191000000    -4.773000000    -0.948000000
H     1.784000000    -5.110000000    -0.101000000
H    -1.853000000    -5.850000000    -0.149000000
C    -0.262000000    -4.353000000     2.330000000
H     0.572000000    -5.051000000     2.335000000
C    -0.488000000    -3.451000000     3.317000000
C     0.609000000    -3.341000000     4.328000000
H     1.107000000    -4.307000000     4.438000000
H     0.124000000    -3.122000000     5.281000000
C     1.569000000    -2.221000000     3.997000000
C     2.732000000    -2.519000000     3.290000000
H     3.017000000    -3.548000000     3.088000000
C     1.302000000    -0.869000000     4.362000000
C     2.204000000     0.180000000     3.992000000
H     1.913000000     1.199000000     4.231000000
C     3.334000000    -0.148000000     3.320000000
O     4.050000000     0.905000000     2.893000000
C     3.912000000     1.214000000     1.523000000
C     3.785000000     2.663000000     1.285000000
C     4.443000000     3.279000000     0.291000000
H     5.016000000     2.731000000    -0.453000000
C     2.915000000     3.382000000     2.022000000
H     2.396000000     2.880000000     2.834000000
O     4.924000000     0.582000000     0.855000000
H     2.974000000     0.866000000     1.067000000
C     3.600000000    -1.479000000     2.996000000
C     4.868000000    -1.876000000     2.209000000
H     5.033000000    -2.944000000     2.366000000
H     5.760000000    -1.297000000     2.456000000
C     4.634000000    -1.729000000     0.680000000
C     4.315000000    -2.892000000    -0.080000000
H     4.409000000    -3.855000000     0.415000000
C     4.672000000    -0.464000000     0.093000000
C     4.344000000    -0.369000000    -1.250000000
H     4.329000000     0.606000000    -1.730000000
C     3.933000000    -1.450000000    -2.025000000
O     3.425000000    -1.337000000    -3.241000000
C     1.988000000    -1.394000000    -3.492000000
C     1.564000000    -0.197000000    -4.343000000
C     2.072000000     1.066000000    -4.083000000
H     2.849000000     1.206000000    -3.336000000
C     0.463000000    -0.349000000    -5.137000000
H     0.038000000    -1.322000000    -5.368000000
O     1.618000000    -2.724000000    -4.006000000
H     1.433000000    -1.397000000    -2.542000000
C     3.938000000    -2.744000000    -1.460000000
C     3.330000000    -3.996000000    -2.074000000
H     3.869000000    -4.836000000    -1.631000000
H     3.620000000    -4.083000000    -3.123000000
C     1.788000000    -4.116000000    -2.036000000
C     0.987000000    -3.584000000    -3.069000000
C    -0.371000000    -3.685000000    -2.997000000
H    -0.909000000    -3.040000000    -3.687000000
C    -1.011000000    -4.216000000    -1.912000000
O    -2.361000000    -4.087000000    -1.790000000
C    -2.739000000    -3.079000000    -0.911000000
H    -1.916000000    -2.371000000    -0.736000000
C    -3.867000000    -2.229000000    -1.536000000
C    -4.444000000    -1.253000000    -0.731000000
H    -4.135000000    -1.133000000     0.304000000
C    -4.101000000    -2.291000000    -2.905000000
H    -3.632000000    -3.008000000    -3.574000000
C    -5.006000000    -1.417000000    -3.464000000
O    -5.237000000    -1.289000000    -4.836000000
C    -5.610000000    -0.419000000    -2.685000000
H    -6.184000000     0.321000000    -3.235000000
C    -5.336000000    -0.300000000    -1.342000000
O    -5.758000000     0.754000000    -0.578000000
C    -6.178000000     0.545000000     0.722000000
C    -5.692000000     1.259000000     1.790000000
H    -4.962000000     2.025000000     1.541000000
C    -7.024000000    -0.527000000     0.977000000
H    -7.317000000    -1.118000000     0.112000000
C    -7.411000000    -0.803000000     2.287000000
H    -8.097000000    -1.617000000     2.506000000
C    -6.908000000    -0.052000000     3.338000000
H    -7.085000000    -0.339000000     4.371000000
C    -5.993000000     1.004000000     3.121000000
O    -5.437000000     1.784000000     4.155000000
C    -4.090000000     1.825000000     4.544000000
C    -3.641000000     2.942000000     5.254000000
H    -4.333000000     3.765000000     5.413000000
C    -2.212000000     3.089000000     5.359000000
O    -1.603000000     4.212000000     5.947000000
C    -0.406000000     4.818000000     5.470000000
C    -0.013000000     4.770000000     4.183000000
H    -0.632000000     4.346000000     3.396000000
C     0.412000000     5.496000000     6.366000000
H    -0.015000000     5.478000000     7.365000000
C     1.608000000     6.128000000     6.016000000
H     2.215000000     6.754000000     6.664000000
C     1.984000000     6.090000000     4.683000000
H     2.918000000     6.506000000     4.314000000
C     1.260000000     5.317000000     3.798000000
O     1.555000000     5.421000000     2.414000000
C     2.579000000     4.719000000     1.757000000
C     3.274000000     5.325000000     0.721000000
H     2.948000000     6.316000000     0.417000000
C     4.273000000     4.647000000     0.053000000
O     4.769000000     5.170000000    -1.083000000
C     4.653000000     4.447000000    -2.269000000
C     3.330000000     4.290000000    -2.677000000
H     2.495000000     4.604000000    -2.057000000
C     5.710000000     3.868000000    -2.951000000
H     6.746000000     4.112000000    -2.729000000
C     5.418000000     3.364000000    -4.242000000
H     6.252000000     2.970000000    -4.818000000
C     4.174000000     3.272000000    -4.710000000
H     3.933000000     2.916000000    -5.708000000
C     3.113000000     3.754000000    -3.947000000
O     1.887000000     3.504000000    -4.389000000
C     1.503000000     2.203000000    -4.675000000
C     0.416000000     2.050000000    -5.522000000
H    -0.046000000     2.866000000    -6.073000000
C    -0.165000000     0.799000000    -5.734000000
O    -1.285000000     0.790000000    -6.501000000
C    -2.167000000    -0.300000000    -6.642000000
C    -2.256000000    -1.069000000    -7.789000000
H    -1.456000000    -0.966000000    -8.519000000
C    -3.278000000    -2.003000000    -7.865000000
H    -3.364000000    -2.692000000    -8.702000000
C    -4.295000000    -2.021000000    -6.914000000
H    -5.131000000    -2.711000000    -6.998000000
C    -4.206000000    -1.278000000    -5.769000000
C    -3.162000000    -0.353000000    -5.658000000
H    -3.206000000     0.315000000    -4.801000000
C    -0.166000000     3.056000000    -1.892000000
H    -0.026000000     4.130000000    -1.983000000
C     0.598000000     2.316000000    -0.945000000
H     1.411000000     2.741000000    -0.363000000
C     0.363000000     0.937000000    -0.911000000
H     0.979000000     0.380000000    -0.190000000
C    -0.597000000     0.309000000    -1.631000000
H    -0.737000000    -0.769000000    -1.627000000
C    -1.395000000     1.062000000    -2.510000000
H    -2.280000000     0.676000000    -3.009000000
C    -1.201000000     2.438000000    -2.696000000
C    -2.153000000     3.319000000    -3.586000000
O    -3.246000000     2.847000000    -3.749000000
O    -1.921000000     4.469000000    -3.719000000
O    -4.894000000     4.921000000    -3.769000000
H    -4.307000000     5.507000000    -3.290000000
H    -4.374000000     4.131000000    -3.917000000
O     0.470000000     5.902000000    -4.227000000
H     1.093000000     5.197000000    -4.405000000
H    -0.345000000     5.452000000    -4.008000000
O    -3.660000000     4.810000000     2.309000000
H    -3.062000000     4.150000000     1.959000000
H    -4.497000000     4.626000000     1.881000000
O    -8.053000000     3.401000000    -5.877000000
H    -7.591000000     4.191000000    -6.159000000
H    -7.512000000     3.048000000    -5.171000000
O    -1.708000000     6.992000000     1.610000000
H    -1.454000000     7.167000000     2.516000000
H    -2.461000000     6.404000000     1.682000000
O    -5.515000000     2.251000000    -5.135000000
H    -4.770000000     2.379000000    -4.547000000
H    -5.313000000     2.792000000    -5.898000000
O    -7.603000000     0.203000000    -6.105000000
H    -6.876000000    -0.365000000    -5.852000000
H    -7.266000000     1.091000000    -5.988000000
O    -2.463000000     2.143000000    -9.908000000
H    -1.982000000     1.581000000    -9.300000000
H    -2.158000000     3.028000000    -9.707000000
O    -4.823000000     8.128000000    -3.086000000
H    -5.164000000     8.360000000    -2.223000000
H    -3.903000000     7.912000000    -2.931000000
O     0.940000000     8.584000000    -3.479000000
H     0.682000000     7.675000000    -3.633000000
H     1.642000000     8.743000000    -4.110000000
O    -1.242000000     4.368000000    -8.556000000
H    -1.882000000     4.665000000    -7.909000000
H    -1.326000000     4.990000000    -9.278000000
O    -5.483000000     4.644000000    -7.150000000
H    -5.594000000     5.536000000    -7.480000000
H    -5.754000000     4.084000000    -7.878000000
O    -2.675000000     6.553000000    -2.298000000
H    -2.326000000     5.949000000    -2.953000000
H    -1.997000000     6.592000000    -1.623000000
O    -2.382000000     8.364000000    -7.475000000
H    -2.639000000     8.943000000    -6.758000000
H    -2.575000000     7.484000000    -7.153000000
O    -6.098000000     7.004000000    -5.263000000
H    -5.959000000     6.076000000    -5.074000000
H    -5.515000000     7.461000000    -4.657000000
O    -6.992000000     3.468000000    -2.676000000
H    -6.632000000     4.266000000    -3.062000000
H    -6.223000000     2.937000000    -2.463000000
O    -2.761000000     5.760000000    -6.392000000
H    -2.499000000     5.722000000    -5.472000000
H    -3.687000000     5.517000000    -6.387000000
O     1.009000000     5.535000000    -7.746000000
H     0.271000000     4.949000000    -7.915000000
H     1.643000000     5.326000000    -8.432000000
O    -2.025000000     2.876000000     0.902000000
H    -1.482000000     3.292000000     0.232000000
H    -1.944000000     1.938000000     0.726000000
