215
-1451.21194
C    -1.595000000     2.640000000     3.943000000
H    -0.561000000     2.703000000     4.271000000
C    -2.270000000     1.412000000     3.815000000
C    -3.669000000     1.480000000     3.596000000
H    -4.155000000     0.516000000     3.469000000
C    -1.437000000     0.133000000     3.891000000
O    -0.350000000     0.198000000     4.856000000
H    -1.079000000    -0.058000000     2.869000000
O    -2.277000000    -1.034000000     4.208000000
C    -2.112000000    -2.126000000     3.376000000
C    -2.932000000    -2.325000000     2.272000000
H    -3.791000000    -1.691000000     2.069000000
C    -2.691000000    -3.445000000     1.461000000
O    -3.563000000    -3.678000000     0.451000000
C    -1.599000000    -4.296000000     1.712000000
C    -1.356000000    -5.433000000     0.767000000
H    -0.716000000    -6.190000000     1.225000000
C    -0.609000000    -4.986000000    -0.422000000
C     0.798000000    -5.078000000    -0.441000000
H     1.271000000    -5.620000000     0.374000000
H    -2.251000000    -5.973000000     0.452000000
C    -0.686000000    -3.975000000     2.656000000
H     0.180000000    -4.610000000     2.822000000
C    -1.009000000    -2.982000000     3.586000000
C    -0.083000000    -2.756000000     4.748000000
H     0.272000000    -3.754000000     5.014000000
H    -0.671000000    -2.354000000     5.576000000
C     1.056000000    -1.726000000     4.437000000
C     2.331000000    -2.149000000     4.023000000
H     2.522000000    -3.207000000     3.862000000
C     0.881000000    -0.326000000     4.567000000
C     1.838000000     0.493000000     4.097000000
H     1.718000000     1.571000000     4.172000000
C     3.035000000     0.046000000     3.601000000
O     3.935000000     0.960000000     3.156000000
C     4.082000000     1.297000000     1.720000000
C     4.301000000     2.807000000     1.470000000
C     5.041000000     3.322000000     0.374000000
H     5.612000000     2.627000000    -0.237000000
C     3.560000000     3.759000000     2.243000000
H     2.988000000     3.382000000     3.087000000
O     5.122000000     0.505000000     1.106000000
H     3.181000000     0.973000000     1.179000000
C     3.271000000    -1.283000000     3.559000000
C     4.566000000    -1.806000000     2.876000000
H     4.915000000    -2.767000000     3.259000000
H     5.458000000    -1.189000000     3.006000000
C     4.315000000    -1.879000000     1.377000000
C     3.886000000    -3.050000000     0.766000000
H     3.865000000    -3.953000000     1.371000000
C     4.601000000    -0.732000000     0.587000000
C     4.263000000    -0.785000000    -0.797000000
H     4.465000000     0.130000000    -1.347000000
C     3.796000000    -1.952000000    -1.448000000
O     3.544000000    -1.933000000    -2.787000000
C     2.176000000    -1.753000000    -3.135000000
C     1.898000000    -0.705000000    -4.204000000
C     2.397000000     0.549000000    -4.031000000
H     3.119000000     0.766000000    -3.248000000
C     1.104000000    -0.997000000    -5.318000000
H     0.668000000    -1.983000000    -5.459000000
O     1.682000000    -3.041000000    -3.423000000
H     1.575000000    -1.404000000    -2.282000000
C     3.642000000    -3.101000000    -0.618000000
C     3.162000000    -4.364000000    -1.326000000
H     3.589000000    -5.177000000    -0.734000000
H     3.591000000    -4.445000000    -2.327000000
C     1.630000000    -4.379000000    -1.355000000
C     0.938000000    -3.768000000    -2.426000000
C    -0.457000000    -3.705000000    -2.504000000
H    -0.898000000    -3.181000000    -3.349000000
C    -1.174000000    -4.321000000    -1.525000000
O    -2.521000000    -4.193000000    -1.633000000
C    -3.144000000    -3.155000000    -0.856000000
H    -2.306000000    -2.451000000    -0.745000000
C    -4.262000000    -2.420000000    -1.577000000
C    -5.216000000    -1.737000000    -0.822000000
H    -5.444000000    -1.746000000     0.241000000
C    -4.095000000    -2.154000000    -2.969000000
H    -3.318000000    -2.681000000    -3.518000000
C    -4.796000000    -1.181000000    -3.549000000
O    -4.568000000    -0.859000000    -4.892000000
C    -5.717000000    -0.413000000    -2.866000000
H    -6.186000000     0.431000000    -3.366000000
C    -5.888000000    -0.713000000    -1.481000000
O    -6.946000000    -0.094000000    -0.808000000
C    -7.043000000     0.184000000     0.511000000
C    -6.143000000     1.049000000     1.084000000
H    -5.275000000     1.432000000     0.553000000
C    -8.101000000    -0.322000000     1.273000000
H    -8.769000000    -1.021000000     0.776000000
C    -8.342000000     0.089000000     2.581000000
H    -9.185000000    -0.135000000     3.230000000
C    -7.515000000     1.110000000     3.041000000
H    -7.762000000     1.490000000     4.029000000
C    -6.363000000     1.538000000     2.378000000
O    -5.637000000     2.677000000     2.869000000
C    -4.342000000     2.633000000     3.260000000
C    -3.666000000     3.809000000     3.314000000
H    -4.074000000     4.747000000     2.948000000
C    -2.272000000     3.834000000     3.670000000
O    -1.685000000     5.103000000     3.902000000
C    -0.357000000     5.250000000     4.229000000
C     0.532000000     5.621000000     3.256000000
H     0.164000000     5.908000000     2.274000000
C     0.062000000     5.022000000     5.547000000
H    -0.557000000     4.799000000     6.412000000
C     1.419000000     5.045000000     5.826000000
H     1.850000000     4.924000000     6.817000000
C     2.372000000     5.435000000     4.871000000
H     3.435000000     5.401000000     5.097000000
C     1.917000000     5.767000000     3.546000000
O     2.829000000     6.107000000     2.587000000
C     3.504000000     5.125000000     1.806000000
C     4.286000000     5.586000000     0.705000000
H     4.351000000     6.613000000     0.353000000
C     4.903000000     4.603000000    -0.085000000
O     5.321000000     5.007000000    -1.325000000
C     5.119000000     4.227000000    -2.458000000
C     3.882000000     3.808000000    -2.891000000
H     3.022000000     4.062000000    -2.277000000
C     6.213000000     4.131000000    -3.330000000
H     7.195000000     4.459000000    -2.997000000
C     6.129000000     3.524000000    -4.571000000
H     7.012000000     3.411000000    -5.194000000
C     4.853000000     3.001000000    -4.949000000
H     4.794000000     2.530000000    -5.927000000
C     3.715000000     3.195000000    -4.148000000
O     2.498000000     2.914000000    -4.677000000
C     2.060000000     1.602000000    -4.862000000
C     1.240000000     1.292000000    -5.955000000
H     0.776000000     2.153000000    -6.428000000
C     0.656000000     0.054000000    -6.123000000
O    -0.255000000    -0.264000000    -7.084000000
C    -1.377000000    -1.067000000    -6.794000000
C    -1.582000000    -2.285000000    -7.476000000
H    -0.844000000    -2.649000000    -8.186000000
C    -2.774000000    -3.064000000    -7.246000000
H    -2.882000000    -4.044000000    -7.703000000
C    -3.675000000    -2.562000000    -6.295000000
H    -4.613000000    -3.039000000    -6.021000000
C    -3.543000000    -1.279000000    -5.753000000
C    -2.480000000    -0.499000000    -6.066000000
H    -2.373000000     0.538000000    -5.761000000
C    -0.064000000     2.984000000    -1.853000000
H     0.423000000     3.664000000    -2.548000000
C     0.589000000     2.639000000    -0.629000000
H     1.592000000     2.938000000    -0.337000000
C    -0.054000000     1.749000000     0.240000000
H     0.295000000     1.479000000     1.280000000
C    -1.282000000     1.255000000    -0.089000000
H    -1.672000000     0.557000000     0.647000000
C    -1.937000000     1.649000000    -1.247000000
H    -2.945000000     1.299000000    -1.454000000
C    -1.400000000     2.542000000    -2.132000000
C    -2.014000000     2.814000000    -3.515000000
O    -3.115000000     2.401000000    -3.751000000
O    -1.407000000     3.572000000    -4.283000000
O    -5.567000000     3.804000000    -2.285000000
H    -6.471000000     3.673000000    -2.573000000
H    -5.080000000     3.090000000    -2.694000000
O     0.656000000     4.872000000    -5.084000000
H     1.371000000     4.239000000    -5.015000000
H    -0.137000000     4.356000000    -4.940000000
O     1.497000000     5.104000000    -7.803000000
H     0.907000000     5.800000000    -8.093000000
H     1.278000000     4.974000000    -6.880000000
O    -6.603000000     3.827000000    -6.452000000
H    -6.823000000     3.334000000    -7.242000000
H    -6.088000000     3.217000000    -5.924000000
O    -4.926000000     2.026000000    -5.564000000
H    -4.337000000     2.297000000    -4.860000000
H    -5.043000000     1.085000000    -5.430000000
O    -7.538000000    -0.116000000    -6.393000000
H    -7.946000000     0.731000000    -6.216000000
H    -6.719000000     0.102000000    -6.838000000
O    -1.893000000     1.698000000    -9.552000000
H    -1.949000000     2.116000000    -8.693000000
H    -1.801000000     0.765000000    -9.359000000
O    -5.687000000     6.405000000    -1.745000000
H    -5.016000000     6.922000000    -2.192000000
H    -5.565000000     5.516000000    -2.080000000
O    -2.350000000     8.484000000    -0.568000000
H    -2.937000000     8.348000000    -1.312000000
H    -2.783000000     8.041000000     0.162000000
O     0.874000000     7.091000000    -3.432000000
H     0.658000000     6.384000000    -4.040000000
H     1.744000000     6.866000000    -3.103000000
O    -3.164000000     5.219000000    -8.616000000
H    -2.577000000     5.974000000    -8.575000000
H    -2.734000000     4.552000000    -8.080000000
O    -2.331000000     6.410000000    -4.547000000
H    -1.416000000     6.646000000    -4.698000000
H    -2.304000000     5.483000000    -4.312000000
O    -6.991000000     7.472000000    -4.709000000
H    -7.034000000     6.961000000    -3.901000000
H    -6.141000000     7.248000000    -5.089000000
O    -4.911000000     0.446000000    -8.114000000
H    -4.706000000     1.380000000    -8.153000000
H    -5.195000000     0.226000000    -9.001000000
O    -3.904000000     7.828000000    -2.913000000
H    -4.263000000     8.269000000    -3.684000000
H    -3.162000000     7.325000000    -3.249000000
O    -4.837000000     6.610000000    -6.047000000
H    -5.146000000     5.803000000    -6.459000000
H    -3.884000000     6.522000000    -6.034000000
O    -7.948000000     2.849000000    -2.993000000
H    -7.845000000     2.220000000    -2.279000000
H    -8.360000000     3.610000000    -2.585000000
O    -2.627000000     3.127000000    -6.889000000
H    -2.229000000     3.514000000    -6.110000000
H    -3.478000000     2.805000000    -6.589000000
O    -3.022000000     5.431000000    -0.998000000
H    -3.738000000     4.796000000    -1.025000000
H    -2.244000000     4.924000000    -1.232000000
