215
-1426.15987
C    -0.947000000     0.095000000    -4.954000000
H    -0.105000000    -0.461000000    -5.358000000
C    -0.718000000     1.286000000    -4.234000000
C    -1.893000000     1.958000000    -3.843000000
H    -1.879000000     2.786000000    -3.138000000
C     0.689000000     1.727000000    -3.753000000
O     1.790000000     1.141000000    -4.478000000
H     0.654000000     1.356000000    -2.718000000
O     0.975000000     3.099000000    -3.711000000
C     1.449000000     3.741000000    -2.592000000
C     0.551000000     4.470000000    -1.804000000
H    -0.466000000     4.677000000    -2.130000000
C     0.950000000     4.754000000    -0.454000000
O     0.012000000     5.278000000     0.356000000
C     2.265000000     4.455000000    -0.017000000
C     2.689000000     4.762000000     1.451000000
H     3.768000000     4.925000000     1.482000000
C     2.355000000     3.651000000     2.382000000
C     3.332000000     2.714000000     2.673000000
H     4.331000000     2.788000000     2.249000000
H     2.216000000     5.677000000     1.814000000
C     3.134000000     3.796000000    -0.906000000
H     4.133000000     3.521000000    -0.577000000
C     2.745000000     3.447000000    -2.200000000
C     3.791000000     2.844000000    -3.190000000
H     4.826000000     3.135000000    -3.000000000
H     3.595000000     3.034000000    -4.247000000
C     3.747000000     1.330000000    -3.055000000
C     4.559000000     0.651000000    -2.100000000
H     5.280000000     1.207000000    -1.506000000
C     2.756000000     0.545000000    -3.693000000
C     2.752000000    -0.822000000    -3.516000000
H     2.077000000    -1.500000000    -4.031000000
C     3.558000000    -1.437000000    -2.563000000
O     3.392000000    -2.790000000    -2.419000000
C     2.750000000    -3.214000000    -1.139000000
C     1.763000000    -4.362000000    -1.377000000
C     1.303000000    -5.148000000    -0.271000000
H     1.781000000    -5.004000000     0.695000000
C     1.168000000    -4.504000000    -2.620000000
H     1.520000000    -3.862000000    -3.423000000
O     3.636000000    -3.568000000    -0.076000000
H     2.158000000    -2.336000000    -0.844000000
C     4.501000000    -0.672000000    -1.851000000
C     5.424000000    -1.277000000    -0.761000000
H     6.410000000    -0.808000000    -0.772000000
H     5.594000000    -2.293000000    -1.123000000
C     4.573000000    -1.367000000     0.559000000
C     4.663000000    -0.437000000     1.540000000
H     5.189000000     0.483000000     1.298000000
C     3.922000000    -2.603000000     0.841000000
C     3.316000000    -2.866000000     2.095000000
H     2.670000000    -3.727000000     2.249000000
C     3.321000000    -1.787000000     3.025000000
O     2.381000000    -1.740000000     4.042000000
C     1.209000000    -0.887000000     3.888000000
C    -0.080000000    -1.641000000     4.211000000
C    -0.141000000    -3.035000000     4.205000000
H     0.731000000    -3.684000000     4.185000000
C    -1.283000000    -0.895000000     4.368000000
H    -1.319000000     0.191000000     4.379000000
O     1.333000000     0.343000000     4.597000000
H     1.182000000    -0.638000000     2.817000000
C     4.102000000    -0.612000000     2.811000000
C     4.145000000     0.506000000     3.802000000
H     5.157000000     0.905000000     3.891000000
H     3.910000000     0.099000000     4.787000000
C     3.091000000     1.623000000     3.507000000
C     1.752000000     1.440000000     4.004000000
C     0.773000000     2.472000000     3.757000000
H    -0.232000000     2.330000000     4.145000000
C     1.066000000     3.598000000     3.006000000
O     0.047000000     4.556000000     2.681000000
C    -0.490000000     4.369000000     1.369000000
H    -0.271000000     3.330000000     1.085000000
C    -2.054000000     4.344000000     1.369000000
C    -2.802000000     4.674000000     0.239000000
H    -2.306000000     4.981000000    -0.679000000
C    -2.743000000     3.913000000     2.456000000
H    -2.268000000     3.779000000     3.424000000
C    -4.137000000     3.964000000     2.493000000
O    -4.755000000     3.742000000     3.711000000
C    -4.886000000     4.554000000     1.477000000
H    -5.972000000     4.569000000     1.529000000
C    -4.202000000     4.838000000     0.323000000
O    -4.880000000     5.452000000    -0.659000000
C    -4.817000000     5.180000000    -1.968000000
C    -4.705000000     3.778000000    -2.271000000
H    -4.813000000     2.963000000    -1.561000000
C    -4.695000000     6.121000000    -2.904000000
H    -4.597000000     7.152000000    -2.575000000
C    -4.632000000     5.740000000    -4.232000000
H    -4.673000000     6.467000000    -5.039000000
C    -4.375000000     4.424000000    -4.573000000
H    -4.194000000     4.187000000    -5.618000000
C    -4.548000000     3.441000000    -3.635000000
O    -4.320000000     2.100000000    -3.966000000
C    -3.169000000     1.480000000    -4.223000000
C    -3.333000000     0.342000000    -5.026000000
H    -4.336000000     0.060000000    -5.335000000
C    -2.200000000    -0.348000000    -5.340000000
O    -2.356000000    -1.531000000    -6.015000000
C    -1.433000000    -2.533000000    -5.990000000
C    -1.320000000    -3.336000000    -4.880000000
H    -1.833000000    -3.136000000    -3.942000000
C    -0.789000000    -2.931000000    -7.131000000
H    -0.966000000    -2.432000000    -8.081000000
C     0.150000000    -3.936000000    -7.133000000
H     0.622000000    -4.194000000    -8.077000000
C     0.224000000    -4.776000000    -6.072000000
H     0.724000000    -5.739000000    -6.129000000
C    -0.520000000    -4.524000000    -4.910000000
O    -0.552000000    -5.483000000    -3.970000000
C     0.130000000    -5.440000000    -2.780000000
C    -0.158000000    -6.340000000    -1.806000000
H    -0.898000000    -7.117000000    -1.979000000
C     0.417000000    -6.218000000    -0.574000000
O     0.066000000    -7.060000000     0.450000000
C     0.185000000    -6.939000000     1.813000000
C    -0.622000000    -6.039000000     2.476000000
H    -1.376000000    -5.413000000     2.005000000
C     1.017000000    -7.816000000     2.539000000
H     1.453000000    -8.694000000     2.071000000
C     1.224000000    -7.684000000     3.870000000
H     1.843000000    -8.251000000     4.562000000
C     0.410000000    -6.714000000     4.527000000
H     0.505000000    -6.529000000     5.594000000
C    -0.506000000    -5.920000000     3.801000000
O    -1.344000000    -5.108000000     4.532000000
C    -1.379000000    -3.747000000     4.379000000
C    -2.517000000    -2.960000000     4.415000000
H    -3.453000000    -3.505000000     4.328000000
C    -2.474000000    -1.565000000     4.501000000
O    -3.667000000    -0.833000000     4.339000000
C    -3.862000000     0.453000000     4.862000000
C    -3.839000000     0.715000000     6.239000000
H    -3.833000000    -0.132000000     6.921000000
C    -4.118000000     1.943000000     6.744000000
H    -4.127000000     2.145000000     7.812000000
C    -4.326000000     2.984000000     5.838000000
H    -4.574000000     3.965000000     6.236000000
C    -4.403000000     2.720000000     4.493000000
C    -4.173000000     1.467000000     3.959000000
H    -4.217000000     1.236000000     2.898000000
C    -1.045000000    -1.950000000    -0.104000000
H    -0.698000000    -2.824000000    -0.649000000
C    -0.104000000    -0.997000000     0.226000000
H     0.937000000    -1.063000000    -0.082000000
C    -0.417000000     0.141000000     0.977000000
H     0.300000000     0.861000000     1.126000000
C    -1.773000000     0.318000000     1.414000000
H    -2.093000000     1.174000000     2.003000000
C    -2.769000000    -0.641000000     0.968000000
H    -3.789000000    -0.600000000     1.341000000
C    -2.330000000    -1.756000000     0.334000000
C    -3.364000000    -2.873000000     0.102000000
O    -4.397000000    -2.902000000     0.828000000
O    -3.252000000    -3.746000000    -0.812000000
O    -2.980000000    -8.633000000     1.156000000
H    -3.294000000    -9.174000000     0.432000000
H    -3.499000000    -7.830000000     1.098000000
O    -6.093000000    -1.420000000    -4.242000000
H    -5.483000000    -2.084000000    -3.920000000
H    -6.494000000    -1.060000000    -3.451000000
O    -7.071000000    -5.748000000    -2.962000000
H    -7.731000000    -6.431000000    -2.838000000
H    -6.708000000    -5.605000000    -2.088000000
O    -9.369000000     0.614000000     0.989000000
H    -8.946000000     1.444000000     0.772000000
H    -8.710000000     0.133000000     1.489000000
O    -5.213000000    -4.911000000    -5.025000000
H    -4.907000000    -4.262000000    -4.392000000
H    -5.813000000    -5.467000000    -4.528000000
O    -5.766000000    -3.594000000     3.077000000
H    -6.071000000    -2.802000000     3.521000000
H    -5.170000000    -3.274000000     2.400000000
O    -6.530000000    -1.515000000     0.034000000
H    -7.189000000    -2.143000000     0.329000000
H    -5.693000000    -1.932000000     0.236000000
O    -5.533000000    -7.434000000     0.856000000
H    -6.094000000    -7.936000000     0.265000000
H    -5.854000000    -7.649000000     1.732000000
O    -3.017000000    -7.709000000    -4.117000000
H    -3.384000000    -6.999000000    -3.590000000
H    -2.802000000    -8.392000000    -3.483000000
O    -6.474000000    -1.670000000     5.075000000
H    -6.692000000    -1.467000000     5.985000000
H    -5.573000000    -1.363000000     4.971000000
O    -6.908000000     0.300000000    -1.828000000
H    -6.756000000    -0.435000000    -1.235000000
H    -7.106000000     1.037000000    -1.250000000
O    -9.615000000    -1.038000000    -1.290000000
H    -8.660000000    -1.100000000    -1.282000000
H    -9.835000000    -0.621000000    -0.457000000
O    -8.223000000     0.224000000     3.638000000
H    -8.603000000     0.816000000     4.287000000
H    -7.485000000    -0.185000000     4.089000000
O    -8.685000000    -3.000000000     0.503000000
H    -8.494000000    -3.260000000     1.404000000
H    -8.190000000    -3.619000000    -0.034000000
O    -4.697000000    -3.290000000    -2.915000000
H    -3.875000000    -3.741000000    -2.721000000
H    -4.993000000    -2.956000000    -2.068000000
O    -3.397000000    -6.293000000    -1.835000000
H    -3.890000000    -6.496000000    -1.040000000
H    -2.994000000    -5.443000000    -1.657000000
O    -6.302000000    -4.644000000    -0.164000000
H    -5.679000000    -3.978000000     0.125000000
H    -6.117000000    -5.402000000     0.390000000
O    -3.849000000    -8.216000000     3.707000000
H    -3.200000000    -8.768000000     4.143000000
H    -3.621000000    -8.267000000     2.778000000
O    -4.843000000    -5.738000000     4.895000000
H    -5.092000000    -5.080000000     4.245000000
H    -4.247000000    -6.323000000     4.428000000
