215
-1473.83902
C     3.976000000    -1.237000000    -2.852000000
H     3.569000000    -2.240000000    -2.762000000
C     4.126000000    -0.575000000    -1.647000000
C     4.638000000     0.730000000    -1.603000000
H     4.915000000     1.152000000    -0.640000000
C     3.914000000    -1.325000000    -0.340000000
O     4.186000000    -2.693000000    -0.384000000
H     2.850000000    -1.146000000    -0.127000000
O     4.743000000    -0.716000000     0.758000000
C     4.107000000    -0.457000000     1.983000000
C     3.812000000     0.937000000     2.284000000
H     4.148000000     1.722000000     1.613000000
C     3.054000000     1.321000000     3.349000000
O     2.649000000     2.617000000     3.454000000
C     2.566000000     0.345000000     4.233000000
C     1.709000000     0.654000000     5.425000000
H     1.846000000    -0.093000000     6.211000000
C     0.216000000     0.633000000     4.955000000
C    -0.516000000    -0.571000000     4.997000000
H    -0.111000000    -1.425000000     5.534000000
H     2.020000000     1.644000000     5.764000000
C     2.912000000    -0.998000000     3.949000000
H     2.555000000    -1.697000000     4.702000000
C     3.599000000    -1.439000000     2.797000000
C     3.876000000    -2.908000000     2.603000000
H     3.850000000    -3.391000000     3.582000000
H     4.899000000    -3.051000000     2.249000000
C     3.052000000    -3.672000000     1.540000000
C     1.934000000    -4.356000000     1.957000000
H     1.817000000    -4.492000000     3.030000000
C     3.262000000    -3.551000000     0.163000000
C     2.310000000    -4.153000000    -0.690000000
H     2.408000000    -4.068000000    -1.769000000
C     1.142000000    -4.807000000    -0.233000000
O     0.167000000    -5.105000000    -1.076000000
C    -0.946000000    -4.188000000    -1.239000000
C    -1.350000000    -3.986000000    -2.758000000
C    -2.621000000    -3.498000000    -3.123000000
H    -3.369000000    -3.365000000    -2.346000000
C    -0.346000000    -4.161000000    -3.741000000
H     0.620000000    -4.593000000    -3.493000000
O    -2.004000000    -4.765000000    -0.433000000
H    -0.589000000    -3.266000000    -0.757000000
C     0.973000000    -4.909000000     1.119000000
C    -0.321000000    -5.453000000     1.791000000
H    -0.039000000    -5.824000000     2.779000000
H    -0.735000000    -6.345000000     1.316000000
C    -1.485000000    -4.448000000     1.848000000
C    -1.645000000    -3.626000000     2.970000000
H    -0.960000000    -3.702000000     3.811000000
C    -2.272000000    -4.119000000     0.743000000
C    -3.136000000    -3.010000000     0.727000000
H    -3.846000000    -2.799000000    -0.068000000
C    -3.261000000    -2.191000000     1.837000000
O    -4.084000000    -1.124000000     1.746000000
C    -3.507000000     0.181000000     1.714000000
C    -4.167000000     1.212000000     0.793000000
C    -4.706000000     0.723000000    -0.327000000
H    -4.566000000    -0.336000000    -0.530000000
C    -4.333000000     2.532000000     1.208000000
H    -4.121000000     2.902000000     2.208000000
O    -3.442000000     0.683000000     3.050000000
H    -2.505000000     0.046000000     1.280000000
C    -2.501000000    -2.525000000     2.964000000
C    -2.640000000    -1.694000000     4.283000000
H    -2.484000000    -2.372000000     5.124000000
H    -3.667000000    -1.342000000     4.395000000
C    -1.783000000    -0.548000000     4.357000000
C    -2.205000000     0.622000000     3.677000000
C    -1.497000000     1.820000000     3.673000000
H    -1.772000000     2.708000000     3.111000000
C    -0.280000000     1.816000000     4.401000000
O     0.564000000     2.916000000     4.265000000
C     1.335000000     2.814000000     3.048000000
H     1.021000000     1.915000000     2.499000000
C     1.107000000     4.046000000     2.156000000
C     1.958000000     4.280000000     1.085000000
H     2.775000000     3.624000000     0.796000000
C     0.063000000     4.953000000     2.432000000
H    -0.585000000     4.814000000     3.294000000
C    -0.208000000     5.946000000     1.511000000
O    -1.256000000     6.860000000     1.768000000
C     0.612000000     6.137000000     0.322000000
H     0.302000000     6.852000000    -0.436000000
C     1.663000000     5.210000000     0.117000000
O     2.409000000     5.389000000    -1.024000000
C     3.714000000     5.109000000    -1.190000000
C     4.040000000     3.953000000    -1.879000000
H     3.258000000     3.269000000    -2.202000000
C     4.713000000     5.918000000    -0.725000000
H     4.414000000     6.755000000    -0.098000000
C     6.045000000     5.636000000    -0.947000000
H     6.768000000     6.385000000    -0.633000000
C     6.374000000     4.468000000    -1.652000000
H     7.400000000     4.128000000    -1.775000000
C     5.384000000     3.707000000    -2.179000000
O     5.734000000     2.515000000    -2.862000000
C     5.095000000     1.286000000    -2.774000000
C     4.977000000     0.595000000    -4.032000000
H     5.328000000     0.961000000    -4.993000000
C     4.292000000    -0.613000000    -4.086000000
O     4.114000000    -1.280000000    -5.277000000
C     3.543000000    -2.482000000    -5.511000000
C     2.197000000    -2.566000000    -5.790000000
H     1.588000000    -1.690000000    -5.583000000
C     4.368000000    -3.601000000    -5.493000000
H     5.455000000    -3.587000000    -5.468000000
C     3.852000000    -4.873000000    -5.788000000
H     4.453000000    -5.777000000    -5.738000000
C     2.449000000    -4.923000000    -6.082000000
H     2.014000000    -5.890000000    -6.319000000
C     1.623000000    -3.840000000    -5.936000000
O     0.277000000    -3.937000000    -6.066000000
C    -0.661000000    -3.862000000    -5.022000000
C    -1.861000000    -3.215000000    -5.353000000
H    -2.046000000    -2.892000000    -6.374000000
C    -2.824000000    -3.090000000    -4.392000000
O    -3.991000000    -2.522000000    -4.888000000
C    -5.010000000    -2.066000000    -4.082000000
C    -5.087000000    -0.650000000    -3.787000000
H    -4.386000000     0.023000000    -4.275000000
C    -5.915000000    -2.956000000    -3.428000000
H    -6.038000000    -4.027000000    -3.562000000
C    -6.817000000    -2.413000000    -2.424000000
H    -7.538000000    -3.011000000    -1.873000000
C    -6.734000000    -1.029000000    -2.094000000
H    -7.404000000    -0.778000000    -1.275000000
C    -5.933000000    -0.175000000    -2.776000000
O    -5.893000000     1.197000000    -2.434000000
C    -5.326000000     1.648000000    -1.236000000
C    -5.509000000     2.970000000    -0.874000000
H    -6.024000000     3.687000000    -1.508000000
C    -5.034000000     3.453000000     0.336000000
O    -5.361000000     4.685000000     0.763000000
C    -4.620000000     5.400000000     1.713000000
C    -5.056000000     5.684000000     3.030000000
H    -5.981000000     5.288000000     3.440000000
C    -4.175000000     6.271000000     3.965000000
H    -4.445000000     6.477000000     4.998000000
C    -2.891000000     6.655000000     3.503000000
H    -2.288000000     7.203000000     4.222000000
C    -2.491000000     6.458000000     2.237000000
C    -3.355000000     5.887000000     1.315000000
H    -3.081000000     5.739000000     0.274000000
C     0.517000000    -0.051000000    -2.188000000
H     0.723000000    -0.004000000    -3.254000000
C     0.670000000    -1.208000000    -1.381000000
H     1.006000000    -2.154000000    -1.798000000
C     0.351000000    -1.204000000    -0.042000000
H     0.445000000    -2.063000000     0.616000000
C     0.018000000    -0.017000000     0.546000000
H    -0.245000000    -0.013000000     1.601000000
C    -0.187000000     1.183000000    -0.204000000
H    -0.575000000     2.076000000     0.277000000
C     0.091000000     1.180000000    -1.637000000
C    -0.031000000     2.410000000    -2.550000000
O    -0.146000000     3.615000000    -2.161000000
O    -0.114000000     2.248000000    -3.770000000
O    -4.833000000     4.862000000    -7.028000000
H    -4.810000000     4.573000000    -6.116000000
H    -5.428000000     4.248000000    -7.459000000
O    -0.794000000     8.877000000    -3.402000000
H    -1.174000000     8.335000000    -2.711000000
H    -0.190000000     9.461000000    -2.943000000
O    -4.986000000     4.232000000    -4.308000000
H    -5.506000000     3.454000000    -4.108000000
H    -4.390000000     4.319000000    -3.564000000
O    -1.518000000     8.307000000    -5.960000000
H    -0.946000000     8.640000000    -5.269000000
H    -2.038000000     7.626000000    -5.533000000
O     2.621000000     4.748000000    -4.962000000
H     1.887000000     5.142000000    -4.492000000
H     3.393000000     5.204000000    -4.626000000
O    -1.287000000     4.349000000    -5.111000000
H    -1.612000000     3.707000000    -5.742000000
H    -0.723000000     3.845000000    -4.525000000
O     0.115000000    -0.804000000    -7.594000000
H    -0.639000000    -1.040000000    -8.134000000
H    -0.221000000    -0.804000000    -6.698000000
O    -1.426000000     0.338000000    -5.088000000
H    -1.021000000     1.079000000    -4.637000000
H    -1.600000000    -0.299000000    -4.395000000
O    -1.899000000     2.392000000    -6.963000000
H    -1.184000000     2.390000000    -7.599000000
H    -1.763000000     1.597000000    -6.447000000
O    -2.316000000     7.201000000    -2.161000000
H    -2.405000000     6.347000000    -1.739000000
H    -2.752000000     7.097000000    -3.007000000
O    -3.195000000     6.539000000    -5.039000000
H    -4.025000000     6.338000000    -5.470000000
H    -2.749000000     5.695000000    -4.971000000
O     1.982000000     2.157000000    -5.521000000
H     2.107000000     3.084000000    -5.319000000
H     1.299000000     1.870000000    -4.915000000
O     0.451000000     6.022000000    -3.457000000
H    -0.057000000     5.707000000    -4.204000000
H     0.387000000     5.320000000    -2.810000000
O     0.382000000     2.454000000    -8.400000000
H     0.643000000     3.371000000    -8.480000000
H     1.137000000     2.024000000    -7.998000000
O     2.542000000     0.716000000    -7.646000000
H     1.778000000     0.141000000    -7.683000000
H     2.418000000     1.227000000    -6.845000000
O    -2.819000000     4.207000000    -2.084000000
H    -2.096000000     3.815000000    -2.574000000
H    -2.562000000     4.119000000    -1.166000000
O     0.718000000     6.704000000    -6.560000000
H     0.061000000     7.287000000    -6.178000000
H     1.548000000     7.164000000    -6.434000000
O     4.878000000     4.331000000    -7.314000000
H     4.970000000     3.423000000    -7.603000000
H     4.143000000     4.313000000    -6.700000000
O     2.389000000     7.727000000    -3.450000000
H     1.564000000     7.244000000    -3.405000000
H     2.544000000     8.021000000    -2.553000000
