215
-1457.51510
C    -1.999000000     3.581000000     3.145000000
H    -0.950000000     3.737000000     3.384000000
C    -2.617000000     2.416000000     3.463000000
C    -3.941000000     2.274000000     3.182000000
H    -4.526000000     1.383000000     3.395000000
C    -1.838000000     1.194000000     4.008000000
O    -0.775000000     1.409000000     4.984000000
H    -1.361000000     0.830000000     3.087000000
O    -2.700000000     0.046000000     4.419000000
C    -2.360000000    -1.169000000     3.843000000
C    -3.127000000    -1.530000000     2.716000000
H    -3.809000000    -0.747000000     2.393000000
C    -2.941000000    -2.789000000     2.137000000
O    -3.547000000    -3.038000000     0.955000000
C    -1.948000000    -3.629000000     2.623000000
C    -1.655000000    -4.909000000     1.868000000
H    -1.294000000    -5.674000000     2.558000000
C    -0.695000000    -4.678000000     0.691000000
C     0.707000000    -4.972000000     0.875000000
H     1.025000000    -5.204000000     1.888000000
H    -2.594000000    -5.328000000     1.499000000
C    -1.206000000    -3.267000000     3.766000000
H    -0.397000000    -3.904000000     4.115000000
C    -1.394000000    -2.019000000     4.314000000
C    -0.528000000    -1.600000000     5.531000000
H    -0.044000000    -2.480000000     5.961000000
H    -1.031000000    -1.073000000     6.345000000
C     0.506000000    -0.697000000     4.917000000
C     1.784000000    -1.290000000     4.669000000
H     1.962000000    -2.275000000     5.093000000
C     0.324000000     0.696000000     4.668000000
C     1.350000000     1.416000000     4.119000000
H     1.170000000     2.456000000     3.858000000
C     2.551000000     0.845000000     3.766000000
O     3.422000000     1.600000000     3.033000000
C     3.458000000     1.398000000     1.584000000
C     3.488000000     2.686000000     0.789000000
C     3.688000000     2.707000000    -0.608000000
H     4.084000000     1.811000000    -1.080000000
C     3.235000000     3.906000000     1.395000000
H     2.869000000     3.916000000     2.419000000
O     4.644000000     0.645000000     1.396000000
H     2.559000000     0.790000000     1.403000000
C     2.777000000    -0.510000000     4.092000000
C     4.149000000    -1.140000000     3.668000000
H     4.391000000    -1.964000000     4.342000000
H     4.942000000    -0.407000000     3.826000000
C     4.130000000    -1.625000000     2.192000000
C     3.882000000    -2.961000000     1.850000000
H     3.737000000    -3.694000000     2.640000000
C     4.519000000    -0.685000000     1.188000000
C     4.532000000    -1.130000000    -0.140000000
H     4.717000000    -0.469000000    -0.983000000
C     4.210000000    -2.430000000    -0.449000000
O     4.013000000    -2.690000000    -1.781000000
C     2.689000000    -2.648000000    -2.330000000
C     2.680000000    -2.034000000    -3.747000000
C     3.722000000    -1.216000000    -4.227000000
H     4.610000000    -1.021000000    -3.631000000
C     1.511000000    -2.071000000    -4.534000000
H     0.703000000    -2.744000000    -4.259000000
O     2.040000000    -3.935000000    -2.290000000
H     2.114000000    -1.928000000    -1.729000000
C     3.856000000    -3.349000000     0.491000000
C     3.205000000    -4.725000000     0.154000000
H     3.444000000    -5.403000000     0.976000000
H     3.751000000    -5.131000000    -0.700000000
C     1.693000000    -4.675000000    -0.102000000
C     1.184000000    -4.226000000    -1.313000000
C    -0.154000000    -4.120000000    -1.619000000
H    -0.502000000    -3.783000000    -2.591000000
C    -1.063000000    -4.390000000    -0.619000000
O    -2.338000000    -4.068000000    -0.792000000
C    -2.843000000    -2.868000000    -0.279000000
H    -1.961000000    -2.247000000    -0.066000000
C    -3.776000000    -2.215000000    -1.239000000
C    -4.725000000    -1.309000000    -0.803000000
H    -4.971000000    -1.143000000     0.243000000
C    -3.534000000    -2.339000000    -2.653000000
H    -2.684000000    -2.934000000    -2.978000000
C    -4.224000000    -1.594000000    -3.592000000
O    -4.067000000    -1.704000000    -5.011000000
C    -5.204000000    -0.725000000    -3.110000000
H    -5.842000000    -0.089000000    -3.719000000
C    -5.492000000    -0.621000000    -1.749000000
O    -6.488000000     0.251000000    -1.401000000
C    -6.766000000     0.557000000    -0.100000000
C    -6.210000000     1.663000000     0.498000000
H    -5.549000000     2.297000000    -0.087000000
C    -7.500000000    -0.299000000     0.697000000
H    -7.828000000    -1.237000000     0.258000000
C    -7.779000000    -0.061000000     2.057000000
H    -8.386000000    -0.750000000     2.638000000
C    -7.348000000     1.170000000     2.576000000
H    -7.513000000     1.344000000     3.636000000
C    -6.530000000     2.049000000     1.782000000
O    -5.990000000     3.166000000     2.329000000
C    -4.682000000     3.286000000     2.590000000
C    -4.065000000     4.512000000     2.354000000
H    -4.575000000     5.307000000     1.816000000
C    -2.738000000     4.662000000     2.617000000
O    -2.094000000     5.834000000     2.156000000
C    -0.840000000     6.302000000     2.528000000
C     0.296000000     5.898000000     1.733000000
H     0.106000000     5.240000000     0.889000000
C    -0.638000000     7.173000000     3.579000000
H    -1.497000000     7.473000000     4.174000000
C     0.592000000     7.675000000     3.879000000
H     0.747000000     8.450000000     4.626000000
C     1.684000000     7.257000000     3.079000000
H     2.643000000     7.733000000     3.263000000
C     1.552000000     6.467000000     2.039000000
O     2.687000000     6.224000000     1.269000000
C     3.039000000     5.030000000     0.662000000
C     3.298000000     5.089000000    -0.684000000
H     3.096000000     5.989000000    -1.260000000
C     3.572000000     3.897000000    -1.376000000
O     3.645000000     3.943000000    -2.752000000
C     4.542000000     3.178000000    -3.489000000
C     4.092000000     2.015000000    -4.159000000
H     3.019000000     1.842000000    -4.197000000
C     5.880000000     3.372000000    -3.382000000
H     6.147000000     4.343000000    -2.973000000
C     6.816000000     2.569000000    -3.999000000
H     7.856000000     2.874000000    -3.913000000
C     6.354000000     1.516000000    -4.787000000
H     7.003000000     0.832000000    -5.328000000
C     5.005000000     1.295000000    -4.974000000
O     4.605000000     0.308000000    -5.814000000
C     3.601000000    -0.619000000    -5.478000000
C     2.452000000    -0.728000000    -6.292000000
H     2.400000000    -0.099000000    -7.177000000
C     1.457000000    -1.507000000    -5.791000000
O     0.350000000    -1.630000000    -6.603000000
C    -0.758000000    -2.371000000    -6.387000000
C    -1.035000000    -3.479000000    -7.191000000
H    -0.263000000    -3.883000000    -7.840000000
C    -2.314000000    -4.056000000    -7.093000000
H    -2.498000000    -4.928000000    -7.715000000
C    -3.291000000    -3.587000000    -6.258000000
H    -4.259000000    -4.081000000    -6.286000000
C    -3.039000000    -2.425000000    -5.554000000
C    -1.784000000    -1.824000000    -5.636000000
H    -1.578000000    -0.958000000    -5.011000000
C     0.076000000     0.546000000    -1.728000000
H     0.688000000     0.354000000    -2.605000000
C     0.452000000    -0.003000000    -0.517000000
H     1.471000000    -0.320000000    -0.313000000
C    -0.385000000     0.138000000     0.551000000
H    -0.010000000    -0.037000000     1.529000000
C    -1.604000000     0.782000000     0.381000000
H    -2.343000000     0.869000000     1.172000000
C    -1.974000000     1.404000000    -0.812000000
H    -2.984000000     1.805000000    -0.832000000
C    -1.112000000     1.282000000    -1.915000000
C    -1.576000000     1.728000000    -3.286000000
O    -2.743000000     2.026000000    -3.486000000
O    -0.866000000     1.662000000    -4.282000000
O    -3.762000000     4.302000000    -2.793000000
H    -4.657000000     3.971000000    -2.862000000
H    -3.210000000     3.532000000    -2.930000000
O     0.294000000     2.112000000    -9.460000000
H     0.091000000     1.444000000    -8.806000000
H     0.209000000     2.942000000    -8.990000000
O    -6.955000000     1.382000000    -6.048000000
H    -6.081000000     1.725000000    -5.861000000
H    -7.520000000     2.155000000    -6.049000000
O     0.051000000     4.297000000    -2.136000000
H     0.903000000     4.499000000    -2.523000000
H    -0.218000000     3.483000000    -2.561000000
O     1.803000000     6.913000000    -3.499000000
H     1.159000000     7.471000000    -3.935000000
H     1.845000000     6.126000000    -4.041000000
O    -0.840000000     3.949000000    -5.621000000
H    -0.798000000     3.083000000    -5.214000000
H    -1.580000000     4.379000000    -5.192000000
O     0.359000000     4.826000000    -7.977000000
H    -0.078000000     4.397000000    -7.242000000
H     0.450000000     5.738000000    -7.702000000
O    -2.919000000     2.156000000    -7.919000000
H    -2.293000000     1.789000000    -7.294000000
H    -2.987000000     1.493000000    -8.607000000
O    -3.426000000     5.044000000    -7.724000000
H    -3.194000000     4.115000000    -7.718000000
H    -3.458000000     5.288000000    -6.799000000
O    -4.419000000     2.275000000    -5.542000000
H    -3.879000000     2.309000000    -4.752000000
H    -3.797000000     2.368000000    -6.263000000
O    -3.115000000     5.691000000    -5.082000000
H    -2.400000000     6.040000000    -4.549000000
H    -3.692000000     5.255000000    -4.454000000
O    -0.437000000     1.095000000    -6.705000000
H    -0.315000000     0.148000000    -6.642000000
H    -0.732000000     1.358000000    -5.833000000
O     1.623000000    -1.529000000    -9.191000000
H     1.490000000    -2.351000000    -9.662000000
H     1.091000000    -1.618000000    -8.400000000
O    -6.332000000    -1.478000000    -7.472000000
H    -5.533000000    -1.279000000    -6.983000000
H    -6.996000000    -0.906000000    -7.088000000
O    -8.119000000     3.908000000    -2.209000000
H    -7.487000000     3.272000000    -2.545000000
H    -7.944000000     4.706000000    -2.707000000
O     1.942000000     5.057000000    -5.453000000
H     1.358000000     4.376000000    -5.120000000
H     2.055000000     4.845000000    -6.379000000
O    -5.944000000     2.606000000    -3.056000000
H    -5.343000000     2.567000000    -3.800000000
H    -5.909000000     1.729000000    -2.674000000
O    -1.148000000     6.802000000    -2.009000000
H    -0.393000000     7.052000000    -2.540000000
H    -1.116000000     5.846000000    -1.981000000
O    -4.139000000     7.419000000    -1.301000000
H    -4.359000000     7.592000000    -2.217000000
H    -3.183000000     7.372000000    -1.289000000
