215
-1483.47818
C    -2.352000000     3.490000000     3.139000000
H    -1.379000000     3.672000000     3.588000000
C    -2.839000000     2.111000000     3.118000000
C    -4.117000000     1.824000000     2.593000000
H    -4.520000000     0.829000000     2.768000000
C    -1.845000000     1.006000000     3.593000000
O    -0.805000000     1.413000000     4.539000000
H    -1.321000000     0.616000000     2.708000000
O    -2.561000000    -0.164000000     4.069000000
C    -2.274000000    -1.432000000     3.580000000
C    -3.044000000    -1.913000000     2.549000000
H    -3.804000000    -1.281000000     2.099000000
C    -2.580000000    -3.080000000     1.904000000
O    -3.171000000    -3.464000000     0.745000000
C    -1.463000000    -3.867000000     2.369000000
C    -1.037000000    -5.156000000     1.728000000
H    -0.382000000    -5.724000000     2.392000000
C    -0.166000000    -4.936000000     0.506000000
C     1.230000000    -4.846000000     0.690000000
H     1.563000000    -5.052000000     1.704000000
H    -1.830000000    -5.862000000     1.474000000
C    -0.741000000    -3.325000000     3.469000000
H     0.137000000    -3.850000000     3.838000000
C    -1.086000000    -2.084000000     4.045000000
C    -0.342000000    -1.473000000     5.215000000
H     0.064000000    -2.258000000     5.858000000
H    -0.917000000    -0.884000000     5.933000000
C     0.705000000    -0.530000000     4.592000000
C     2.003000000    -1.004000000     4.368000000
H     2.255000000    -2.025000000     4.641000000
C     0.456000000     0.862000000     4.432000000
C     1.426000000     1.721000000     4.003000000
H     1.263000000     2.796000000     3.976000000
C     2.675000000     1.184000000     3.719000000
O     3.526000000     2.089000000     3.068000000
C     3.562000000     1.912000000     1.618000000
C     3.579000000     3.351000000     1.043000000
C     4.520000000     3.594000000    -0.002000000
H     5.172000000     2.798000000    -0.355000000
C     2.598000000     4.232000000     1.412000000
H     1.982000000     3.948000000     2.261000000
O     4.726000000     1.127000000     1.369000000
H     2.667000000     1.387000000     1.254000000
C     3.015000000    -0.178000000     3.909000000
C     4.370000000    -0.734000000     3.559000000
H     4.629000000    -1.561000000     4.223000000
H     5.094000000     0.072000000     3.694000000
C     4.269000000    -1.185000000     2.069000000
C     4.030000000    -2.476000000     1.682000000
H     3.912000000    -3.256000000     2.430000000
C     4.490000000    -0.217000000     1.025000000
C     4.433000000    -0.511000000    -0.312000000
H     4.461000000     0.200000000    -1.134000000
C     4.089000000    -1.832000000    -0.631000000
O     3.892000000    -2.143000000    -1.973000000
C     2.500000000    -2.261000000    -2.474000000
C     2.340000000    -1.500000000    -3.785000000
C     3.232000000    -0.404000000    -4.031000000
H     4.016000000    -0.134000000    -3.328000000
C     1.210000000    -1.679000000    -4.638000000
H     0.579000000    -2.510000000    -4.333000000
O     2.189000000    -3.567000000    -2.711000000
H     1.754000000    -1.807000000    -1.806000000
C     3.887000000    -2.781000000     0.297000000
C     3.531000000    -4.220000000    -0.019000000
H     3.894000000    -4.846000000     0.798000000
H     4.103000000    -4.410000000    -0.929000000
C     2.069000000    -4.428000000    -0.335000000
C     1.506000000    -4.153000000    -1.640000000
C     0.122000000    -4.237000000    -1.774000000
H    -0.300000000    -3.926000000    -2.727000000
C    -0.685000000    -4.642000000    -0.726000000
O    -2.036000000    -4.532000000    -0.963000000
C    -2.651000000    -3.306000000    -0.551000000
H    -1.935000000    -2.471000000    -0.527000000
C    -3.756000000    -2.791000000    -1.511000000
C    -4.798000000    -2.003000000    -1.057000000
H    -4.924000000    -1.846000000     0.011000000
C    -3.582000000    -3.149000000    -2.867000000
H    -2.730000000    -3.723000000    -3.222000000
C    -4.433000000    -2.535000000    -3.742000000
O    -4.179000000    -2.550000000    -5.110000000
C    -5.501000000    -1.740000000    -3.288000000
H    -6.227000000    -1.268000000    -3.945000000
C    -5.763000000    -1.584000000    -1.912000000
O    -6.863000000    -0.840000000    -1.555000000
C    -7.037000000    -0.371000000    -0.249000000
C    -6.464000000     0.840000000     0.154000000
H    -5.784000000     1.422000000    -0.463000000
C    -7.847000000    -1.091000000     0.638000000
H    -8.176000000    -2.113000000     0.467000000
C    -8.189000000    -0.466000000     1.865000000
H    -8.822000000    -1.014000000     2.557000000
C    -7.659000000     0.766000000     2.277000000
H    -8.047000000     1.264000000     3.162000000
C    -6.753000000     1.410000000     1.424000000
O    -6.254000000     2.653000000     1.810000000
C    -4.925000000     2.847000000     2.076000000
C    -4.473000000     4.189000000     2.150000000
H    -5.136000000     5.013000000     1.896000000
C    -3.204000000     4.524000000     2.678000000
O    -2.798000000     5.826000000     2.793000000
C    -1.491000000     6.101000000     3.028000000
C    -0.679000000     6.152000000     1.894000000
H    -1.108000000     6.020000000     0.904000000
C    -1.011000000     6.376000000     4.286000000
H    -1.759000000     6.371000000     5.075000000
C     0.350000000     6.604000000     4.480000000
H     0.688000000     6.929000000     5.461000000
C     1.202000000     6.588000000     3.412000000
H     2.265000000     6.672000000     3.622000000
C     0.679000000     6.379000000     2.133000000
O     1.546000000     6.412000000     1.038000000
C     2.475000000     5.452000000     0.707000000
C     3.354000000     5.764000000    -0.353000000
H     2.959000000     6.597000000    -0.928000000
C     4.274000000     4.759000000    -0.718000000
O     4.885000000     4.850000000    -1.966000000
C     5.317000000     3.747000000    -2.751000000
C     4.413000000     3.231000000    -3.665000000
H     3.473000000     3.757000000    -3.809000000
C     6.550000000     3.164000000    -2.624000000
H     7.303000000     3.564000000    -1.950000000
C     6.931000000     2.045000000    -3.469000000
H     7.942000000     1.654000000    -3.390000000
C     6.001000000     1.482000000    -4.308000000
H     6.247000000     0.657000000    -4.972000000
C     4.743000000     2.059000000    -4.409000000
O     3.728000000     1.614000000    -5.181000000
C     3.104000000     0.369000000    -5.086000000
C     1.998000000     0.150000000    -5.966000000
H     1.781000000     0.906000000    -6.716000000
C     1.067000000    -0.848000000    -5.733000000
O    -0.083000000    -0.912000000    -6.553000000
C    -0.877000000    -1.936000000    -6.341000000
C    -0.440000000    -3.207000000    -6.685000000
H     0.531000000    -3.390000000    -7.139000000
C    -1.302000000    -4.309000000    -6.462000000
H    -0.908000000    -5.308000000    -6.628000000
C    -2.595000000    -4.078000000    -6.054000000
H    -3.191000000    -4.979000000    -5.936000000
C    -2.967000000    -2.778000000    -5.685000000
C    -2.109000000    -1.726000000    -5.897000000
H    -2.486000000    -0.740000000    -5.639000000
C    -0.260000000     0.634000000    -2.324000000
H    -0.059000000     0.913000000    -3.355000000
C     0.734000000     0.342000000    -1.411000000
H     1.774000000     0.454000000    -1.707000000
C     0.375000000    -0.227000000    -0.214000000
H     1.121000000    -0.809000000     0.352000000
C    -0.972000000    -0.195000000     0.183000000
H    -1.272000000    -0.509000000     1.179000000
C    -1.947000000     0.307000000    -0.676000000
H    -2.970000000     0.392000000    -0.320000000
C    -1.583000000     0.762000000    -1.928000000
C    -2.653000000     1.285000000    -2.853000000
O    -3.670000000     1.729000000    -2.352000000
O    -2.428000000     1.438000000    -4.025000000
O    -3.203000000     4.105000000    -1.068000000
H    -3.410000000     3.361000000    -1.633000000
H    -2.551000000     3.767000000    -0.455000000
O    -7.537000000     2.039000000    -6.107000000
H    -7.987000000     2.272000000    -6.919000000
H    -7.590000000     2.830000000    -5.569000000
O    -0.342000000     5.109000000    -1.722000000
H    -1.050000000     5.626000000    -1.338000000
H    -0.716000000     4.751000000    -2.527000000
O     1.449000000     7.047000000    -2.994000000
H     0.744000000     7.639000000    -3.258000000
H     1.004000000     6.339000000    -2.527000000
O    -2.090000000     6.592000000    -4.416000000
H    -2.064000000     5.636000000    -4.451000000
H    -2.854000000     6.831000000    -4.940000000
O    -1.803000000     3.970000000    -3.892000000
H    -2.357000000     3.222000000    -3.671000000
H    -1.193000000     3.632000000    -4.548000000
O    -3.011000000     7.921000000    -2.167000000
H    -2.679000000     7.368000000    -2.874000000
H    -2.232000000     8.349000000    -1.812000000
O    -3.418000000     0.376000000    -8.861000000
H    -3.894000000     0.303000000    -8.034000000
H    -4.059000000     0.134000000    -9.529000000
O    -4.657000000     3.865000000    -5.725000000
H    -4.886000000     4.112000000    -4.829000000
H    -4.114000000     4.587000000    -6.042000000
O    -7.496000000     4.770000000    -2.809000000
H    -7.823000000     4.585000000    -3.689000000
H    -7.284000000     3.909000000    -2.447000000
O    -4.092000000     1.068000000    -5.890000000
H    -3.371000000     1.043000000    -5.260000000
H    -4.185000000     1.995000000    -6.110000000
O    -4.731000000     5.420000000    -3.404000000
H    -4.009000000     5.092000000    -2.868000000
H    -5.504000000     5.328000000    -2.847000000
O    -0.787000000     2.109000000    -6.270000000
H    -0.785000000     1.569000000    -7.061000000
H    -1.541000000     1.797000000    -5.770000000
O    -4.564000000     6.307000000    -0.548000000
H    -3.766000000     6.814000000    -0.700000000
H    -4.262000000     5.400000000    -0.481000000
O    -6.160000000    -0.671000000    -6.971000000
H    -6.212000000     0.265000000    -6.776000000
H    -5.982000000    -1.082000000    -6.125000000
O    -8.806000000     1.630000000    -2.834000000
H    -9.133000000     0.740000000    -2.968000000
H    -7.869000000     1.571000000    -3.018000000
O     1.041000000     3.779000000    -5.041000000
H     1.413000000     4.130000000    -5.850000000
H     0.530000000     3.020000000    -5.321000000
O    -6.185000000     2.111000000    -2.867000000
H    -5.983000000     2.298000000    -3.784000000
H    -5.340000000     1.887000000    -2.477000000
O    -0.561000000     2.959000000     0.152000000
H    -0.118000000     2.132000000    -0.038000000
H    -0.116000000     3.602000000    -0.399000000
