215
-1441.74102
C    -1.471000000     4.153000000     3.954000000
H    -0.682000000     4.188000000     4.702000000
C    -2.161000000     2.993000000     3.622000000
C    -3.176000000     2.986000000     2.643000000
H    -3.729000000     2.098000000     2.348000000
C    -1.719000000     1.662000000     4.173000000
O    -0.671000000     1.713000000     5.132000000
H    -1.458000000     1.086000000     3.273000000
O    -2.866000000     0.863000000     4.598000000
C    -2.767000000    -0.455000000     4.074000000
C    -3.521000000    -0.760000000     2.907000000
H    -4.203000000    -0.072000000     2.415000000
C    -3.368000000    -1.961000000     2.273000000
O    -4.009000000    -2.181000000     1.057000000
C    -2.557000000    -2.962000000     2.783000000
C    -2.428000000    -4.364000000     2.143000000
H    -2.185000000    -5.109000000     2.903000000
C    -1.507000000    -4.272000000     1.002000000
C    -0.160000000    -4.621000000     1.203000000
H     0.188000000    -4.900000000     2.194000000
H    -3.393000000    -4.695000000     1.753000000
C    -1.752000000    -2.668000000     3.851000000
H    -0.977000000    -3.339000000     4.213000000
C    -1.875000000    -1.386000000     4.469000000
C    -0.921000000    -1.061000000     5.674000000
H    -0.550000000    -1.943000000     6.200000000
H    -1.538000000    -0.549000000     6.415000000
C     0.340000000    -0.432000000     5.153000000
C     1.406000000    -1.265000000     4.750000000
H     1.386000000    -2.318000000     5.018000000
C     0.448000000     0.908000000     4.868000000
C     1.437000000     1.402000000     4.090000000
H     1.396000000     2.468000000     3.878000000
C     2.502000000     0.628000000     3.685000000
O     3.413000000     1.267000000     2.899000000
C     3.571000000     0.822000000     1.525000000
C     3.902000000     2.087000000     0.607000000
C     4.638000000     1.984000000    -0.556000000
H     5.110000000     1.028000000    -0.765000000
C     3.279000000     3.320000000     0.953000000
H     2.572000000     3.417000000     1.773000000
O     4.641000000    -0.177000000     1.443000000
H     2.648000000     0.342000000     1.169000000
C     2.483000000    -0.784000000     3.931000000
C     3.634000000    -1.739000000     3.670000000
H     3.579000000    -2.613000000     4.322000000
H     4.582000000    -1.211000000     3.795000000
C     3.687000000    -2.251000000     2.309000000
C     3.073000000    -3.479000000     2.042000000
H     2.667000000    -4.068000000     2.861000000
C     4.219000000    -1.501000000     1.220000000
C     4.125000000    -1.973000000    -0.096000000
H     4.554000000    -1.412000000    -0.923000000
C     3.495000000    -3.184000000    -0.321000000
O     3.291000000    -3.639000000    -1.618000000
C     1.990000000    -3.261000000    -2.234000000
C     2.129000000    -2.760000000    -3.645000000
C     3.251000000    -1.948000000    -4.017000000
H     4.090000000    -1.714000000    -3.366000000
C     1.098000000    -2.956000000    -4.592000000
H     0.193000000    -3.446000000    -4.244000000
O     1.180000000    -4.476000000    -2.177000000
H     1.556000000    -2.445000000    -1.637000000
C     2.970000000    -3.944000000     0.733000000
C     2.187000000    -5.228000000     0.492000000
H     2.359000000    -5.860000000     1.366000000
H     2.538000000    -5.814000000    -0.360000000
C     0.753000000    -4.851000000     0.174000000
C     0.330000000    -4.618000000    -1.150000000
C    -0.979000000    -4.098000000    -1.302000000
H    -1.248000000    -3.762000000    -2.300000000
C    -1.915000000    -3.974000000    -0.265000000
O    -3.095000000    -3.395000000    -0.666000000
C    -3.359000000    -2.041000000    -0.283000000
H    -2.393000000    -1.536000000    -0.139000000
C    -4.114000000    -1.315000000    -1.383000000
C    -5.188000000    -0.508000000    -1.010000000
H    -5.518000000    -0.360000000     0.015000000
C    -3.756000000    -1.565000000    -2.680000000
H    -2.884000000    -2.208000000    -2.766000000
C    -4.405000000    -0.813000000    -3.671000000
O    -4.034000000    -0.887000000    -4.993000000
C    -5.395000000     0.186000000    -3.308000000
H    -5.867000000     0.839000000    -4.038000000
C    -5.868000000     0.205000000    -2.004000000
O    -6.855000000     1.086000000    -1.614000000
C    -6.727000000     1.761000000    -0.416000000
C    -5.667000000     2.582000000    -0.171000000
H    -4.888000000     2.672000000    -0.924000000
C    -7.702000000     1.657000000     0.505000000
H    -8.497000000     0.971000000     0.223000000
C    -7.725000000     2.423000000     1.684000000
H    -8.642000000     2.361000000     2.264000000
C    -6.667000000     3.376000000     1.870000000
H    -6.635000000     4.029000000     2.738000000
C    -5.531000000     3.356000000     0.976000000
O    -4.494000000     4.214000000     1.070000000
C    -3.507000000     4.228000000     2.077000000
C    -2.823000000     5.379000000     2.359000000
H    -2.912000000     6.313000000     1.810000000
C    -1.739000000     5.308000000     3.208000000
O    -0.884000000     6.332000000     3.425000000
C     0.408000000     6.343000000     3.033000000
C     0.899000000     5.801000000     1.818000000
H     0.246000000     5.367000000     1.066000000
C     1.310000000     6.988000000     3.927000000
H     1.016000000     7.433000000     4.875000000
C     2.673000000     7.061000000     3.520000000
H     3.421000000     7.532000000     4.153000000
C     3.107000000     6.512000000     2.342000000
H     4.157000000     6.605000000     2.075000000
C     2.220000000     5.890000000     1.516000000
O     2.619000000     5.480000000     0.261000000
C     3.303000000     4.326000000     0.013000000
C     4.198000000     4.220000000    -1.100000000
H     4.256000000     5.038000000    -1.814000000
C     4.862000000     3.045000000    -1.336000000
O     5.747000000     2.981000000    -2.366000000
C     5.875000000     1.881000000    -3.194000000
C     4.843000000     1.364000000    -3.957000000
H     3.890000000     1.883000000    -4.020000000
C     7.091000000     1.316000000    -3.203000000
H     7.894000000     1.742000000    -2.607000000
C     7.492000000     0.305000000    -4.074000000
H     8.538000000     0.031000000    -4.189000000
C     6.496000000    -0.225000000    -4.859000000
H     6.849000000    -0.965000000    -5.573000000
C     5.168000000     0.216000000    -4.753000000
O     4.314000000    -0.452000000    -5.614000000
C     3.276000000    -1.260000000    -5.223000000
C     2.199000000    -1.517000000    -6.174000000
H     2.195000000    -1.055000000    -7.158000000
C     1.104000000    -2.351000000    -5.830000000
O     0.128000000    -2.543000000    -6.794000000
C    -1.220000000    -2.650000000    -6.565000000
C    -1.912000000    -3.718000000    -7.155000000
H    -1.373000000    -4.472000000    -7.722000000
C    -3.247000000    -3.984000000    -6.790000000
H    -3.725000000    -4.882000000    -7.174000000
C    -3.916000000    -3.078000000    -6.007000000
H    -4.943000000    -3.326000000    -5.750000000
C    -3.347000000    -1.860000000    -5.568000000
C    -1.963000000    -1.707000000    -5.840000000
H    -1.451000000    -0.817000000    -5.481000000
C    -0.092000000     0.499000000    -2.302000000
H     0.223000000    -0.035000000    -3.196000000
C     0.056000000     0.017000000    -1.009000000
H     0.554000000    -0.948000000    -0.950000000
C    -0.477000000     0.702000000     0.117000000
H    -0.386000000     0.311000000     1.162000000
C    -1.196000000     1.835000000    -0.090000000
H    -1.718000000     2.308000000     0.736000000
C    -1.249000000     2.445000000    -1.327000000
H    -1.710000000     3.426000000    -1.417000000
C    -0.757000000     1.726000000    -2.445000000
C    -0.811000000     2.488000000    -3.722000000
O    -1.535000000     3.444000000    -3.839000000
O    -0.156000000     2.129000000    -4.640000000
O    -3.778000000     4.752000000    -4.010000000
H    -4.066000000     4.895000000    -3.109000000
H    -3.037000000     4.151000000    -3.932000000
O    -0.130000000    -0.315000000    -8.872000000
H    -0.884000000     0.192000000    -9.174000000
H     0.356000000     0.290000000    -8.311000000
O    -6.225000000     4.412000000    -4.754000000
H    -6.306000000     3.760000000    -5.451000000
H    -5.282000000     4.535000000    -4.650000000
O     2.600000000     3.820000000    -6.848000000
H     3.497000000     3.523000000    -7.002000000
H     2.624000000     4.212000000    -5.975000000
O    -0.509000000     4.578000000    -6.565000000
H    -0.646000000     4.546000000    -5.618000000
H     0.022000000     3.805000000    -6.757000000
O     1.727000000     4.413000000    -9.586000000
H     0.777000000     4.523000000    -9.608000000
H     1.935000000     4.310000000    -8.657000000
O    -5.988000000     2.918000000    -7.259000000
H    -5.960000000     2.120000000    -7.787000000
H    -5.125000000     2.962000000    -6.847000000
O    -2.627000000     7.087000000    -5.565000000
H    -3.427000000     6.641000000    -5.287000000
H    -2.848000000     7.467000000    -6.416000000
O    -3.647000000     2.949000000    -9.512000000
H    -3.458000000     3.694000000    -8.941000000
H    -3.784000000     2.216000000    -8.911000000
O     1.292000000     6.954000000    -7.305000000
H     2.075000000     7.318000000    -6.892000000
H     0.815000000     6.536000000    -6.587000000
O    -3.419000000     3.087000000    -6.400000000
H    -2.907000000     3.793000000    -6.795000000
H    -2.924000000     2.842000000    -5.618000000
O    -2.371000000     7.488000000    -0.394000000
H    -2.570000000     7.629000000    -1.319000000
H    -1.685000000     6.820000000    -0.396000000
O    -2.831000000     5.063000000    -8.098000000
H    -2.105000000     5.357000000    -7.549000000
H    -3.266000000     5.870000000    -8.373000000
O    -1.234000000     5.915000000    -2.946000000
H    -1.062000000     5.012000000    -3.210000000
H    -1.997000000     6.175000000    -3.462000000
O     2.263000000     4.239000000    -3.878000000
H     2.022000000     5.121000000    -3.594000000
H     1.459000000     3.728000000    -3.781000000
O     0.951000000     1.433000000    -7.014000000
H     0.468000000     1.652000000    -6.217000000
H     1.766000000     1.930000000    -6.945000000
O    -5.054000000     5.866000000    -1.659000000
H    -4.337000000     6.348000000    -1.248000000
H    -5.748000000     5.859000000    -0.999000000
O     1.391000000     6.448000000    -2.783000000
H     1.788000000     7.165000000    -2.288000000
H     0.449000000     6.606000000    -2.722000000
O    -4.133000000     0.795000000    -7.809000000
H    -3.687000000    -0.050000000    -7.859000000
H    -3.748000000     1.225000000    -7.046000000
