215
-1459.82267
C    -0.714000000     3.299000000     3.625000000
H     0.288000000     2.971000000     3.886000000
C    -1.658000000     2.311000000     3.388000000
C    -2.883000000     2.619000000     2.832000000
H    -3.563000000     1.786000000     2.677000000
C    -1.250000000     0.867000000     3.638000000
O    -0.278000000     0.707000000     4.706000000
H    -0.886000000     0.517000000     2.661000000
O    -2.389000000     0.106000000     4.003000000
C    -2.572000000    -1.127000000     3.453000000
C    -3.515000000    -1.305000000     2.472000000
H    -4.227000000    -0.500000000     2.308000000
C    -3.649000000    -2.469000000     1.765000000
O    -4.483000000    -2.601000000     0.685000000
C    -2.759000000    -3.544000000     2.036000000
C    -2.749000000    -4.858000000     1.156000000
H    -2.369000000    -5.701000000     1.736000000
C    -1.947000000    -4.626000000    -0.113000000
C    -0.610000000    -5.005000000    -0.110000000
H    -0.171000000    -5.383000000     0.810000000
H    -3.715000000    -5.219000000     0.797000000
C    -1.749000000    -3.332000000     2.956000000
H    -1.085000000    -4.172000000     3.146000000
C    -1.723000000    -2.211000000     3.785000000
C    -0.744000000    -2.222000000     4.925000000
H    -0.547000000    -3.217000000     5.329000000
H    -1.190000000    -1.723000000     5.788000000
C     0.619000000    -1.565000000     4.680000000
C     1.649000000    -2.375000000     4.195000000
H     1.553000000    -3.453000000     4.297000000
C     0.795000000    -0.176000000     4.590000000
C     1.929000000     0.350000000     3.978000000
H     2.033000000     1.432000000     3.971000000
C     2.990000000    -0.467000000     3.629000000
O     4.030000000     0.162000000     2.961000000
C     4.043000000     0.214000000     1.559000000
C     4.469000000     1.613000000     1.044000000
C     5.135000000     1.747000000    -0.184000000
H     5.379000000     0.855000000    -0.755000000
C     4.237000000     2.781000000     1.740000000
H     3.544000000     2.688000000     2.573000000
O     4.910000000    -0.834000000     1.099000000
H     3.029000000    -0.002000000     1.190000000
C     2.834000000    -1.848000000     3.589000000
C     3.883000000    -2.809000000     2.912000000
H     3.883000000    -3.824000000     3.315000000
H     4.903000000    -2.479000000     3.119000000
C     3.635000000    -2.892000000     1.424000000
C     2.808000000    -3.862000000     0.922000000
H     2.313000000    -4.559000000     1.593000000
C     4.239000000    -1.934000000     0.590000000
C     4.133000000    -2.022000000    -0.781000000
H     4.456000000    -1.199000000    -1.414000000
C     3.313000000    -3.030000000    -1.320000000
O     3.010000000    -2.986000000    -2.649000000
C     1.658000000    -2.523000000    -2.989000000
C     1.660000000    -1.546000000    -4.150000000
C     2.747000000    -0.681000000    -4.278000000
H     3.561000000    -0.773000000    -3.564000000
C     0.583000000    -1.356000000    -5.043000000
H    -0.329000000    -1.932000000    -4.908000000
O     0.721000000    -3.536000000    -3.241000000
H     1.311000000    -1.950000000    -2.117000000
C     2.688000000    -3.955000000    -0.460000000
C     1.835000000    -5.084000000    -0.942000000
H     1.935000000    -5.931000000    -0.259000000
H     2.182000000    -5.429000000    -1.919000000
C     0.335000000    -4.762000000    -1.098000000
C    -0.088000000    -4.005000000    -2.186000000
C    -1.473000000    -3.706000000    -2.347000000
H    -1.754000000    -3.081000000    -3.190000000
C    -2.367000000    -3.867000000    -1.295000000
O    -3.608000000    -3.324000000    -1.395000000
C    -3.950000000    -2.153000000    -0.566000000
H    -2.983000000    -1.669000000    -0.360000000
C    -4.775000000    -1.130000000    -1.198000000
C    -5.782000000    -0.339000000    -0.553000000
H    -6.008000000    -0.361000000     0.510000000
C    -4.585000000    -0.932000000    -2.566000000
H    -3.883000000    -1.560000000    -3.108000000
C    -5.190000000     0.105000000    -3.277000000
O    -4.751000000     0.609000000    -4.489000000
C    -6.125000000     0.911000000    -2.577000000
H    -6.416000000     1.811000000    -3.113000000
C    -6.511000000     0.589000000    -1.282000000
O    -7.390000000     1.469000000    -0.652000000
C    -7.061000000     2.114000000     0.516000000
C    -5.933000000     2.894000000     0.613000000
H    -5.343000000     3.087000000    -0.279000000
C    -7.831000000     1.989000000     1.718000000
H    -8.687000000     1.319000000     1.735000000
C    -7.444000000     2.653000000     2.882000000
H    -8.088000000     2.616000000     3.757000000
C    -6.310000000     3.434000000     2.933000000
H    -5.940000000     3.982000000     3.797000000
C    -5.517000000     3.545000000     1.807000000
O    -4.327000000     4.330000000     1.844000000
C    -3.271000000     3.932000000     2.605000000
C    -2.281000000     4.890000000     2.762000000
H    -2.527000000     5.926000000     2.545000000
C    -0.975000000     4.569000000     3.193000000
O    -0.148000000     5.641000000     3.289000000
C     1.153000000     5.487000000     3.679000000
C     2.128000000     5.728000000     2.715000000
H     1.870000000     6.141000000     1.744000000
C     1.451000000     5.061000000     4.909000000
H     0.679000000     5.045000000     5.674000000
C     2.815000000     4.794000000     5.138000000
H     3.193000000     4.464000000     6.102000000
C     3.788000000     4.937000000     4.205000000
H     4.800000000     4.589000000     4.397000000
C     3.447000000     5.346000000     2.949000000
O     4.341000000     5.187000000     1.935000000
C     4.699000000     4.011000000     1.287000000
C     5.373000000     4.170000000     0.139000000
H     5.750000000     5.134000000    -0.192000000
C     5.556000000     3.024000000    -0.649000000
O     6.225000000     3.251000000    -1.839000000
C     6.201000000     2.298000000    -2.853000000
C     5.120000000     2.286000000    -3.679000000
H     4.298000000     2.985000000    -3.549000000
C     7.187000000     1.328000000    -2.983000000
H     8.043000000     1.302000000    -2.314000000
C     7.004000000     0.287000000    -3.864000000
H     7.752000000    -0.488000000    -4.013000000
C     5.877000000     0.191000000    -4.631000000
H     5.726000000    -0.605000000    -5.356000000
C     4.915000000     1.172000000    -4.501000000
O     3.833000000     1.169000000    -5.418000000
C     2.772000000     0.303000000    -5.289000000
C     1.699000000     0.519000000    -6.163000000
H     1.717000000     1.238000000    -6.978000000
C     0.587000000    -0.301000000    -6.014000000
O    -0.564000000    -0.088000000    -6.716000000
C    -1.813000000    -0.581000000    -6.363000000
C    -2.276000000    -1.831000000    -6.776000000
H    -1.584000000    -2.459000000    -7.330000000
C    -3.515000000    -2.278000000    -6.419000000
H    -3.889000000    -3.250000000    -6.732000000
C    -4.382000000    -1.375000000    -5.833000000
H    -5.345000000    -1.762000000    -5.509000000
C    -3.952000000    -0.155000000    -5.354000000
C    -2.607000000     0.264000000    -5.644000000
H    -2.303000000     1.188000000    -5.159000000
C     1.049000000     1.436000000    -1.671000000
H     1.971000000     1.942000000    -1.400000000
C     0.880000000     0.225000000    -1.081000000
H     1.586000000    -0.139000000    -0.339000000
C    -0.272000000    -0.506000000    -1.306000000
H    -0.475000000    -1.413000000    -0.737000000
C    -1.287000000    -0.054000000    -2.141000000
H    -2.190000000    -0.649000000    -2.259000000
C    -1.203000000     1.254000000    -2.646000000
H    -2.090000000     1.576000000    -3.185000000
C    -0.005000000     1.989000000    -2.432000000
C     0.200000000     3.344000000    -3.080000000
O    -0.843000000     3.819000000    -3.472000000
O     1.275000000     3.915000000    -3.222000000
O    -3.641000000     3.566000000    -3.301000000
H    -3.951000000     3.725000000    -2.410000000
H    -2.687000000     3.624000000    -3.238000000
O    -3.153000000     4.977000000    -5.709000000
H    -2.701000000     5.814000000    -5.812000000
H    -2.905000000     4.677000000    -4.834000000
O    -1.129000000     6.463000000    -4.002000000
H    -0.913000000     5.531000000    -3.998000000
H    -0.283000000     6.905000000    -3.935000000
O    -6.159000000     4.416000000    -3.660000000
H    -6.060000000     5.307000000    -3.995000000
H    -5.347000000     3.974000000    -3.910000000
O    -0.215000000     8.890000000    -2.158000000
H    -0.328000000     8.775000000    -1.215000000
H    -1.087000000     8.741000000    -2.524000000
O    -3.304000000     4.696000000    -0.561000000
H    -3.158000000     5.642000000    -0.559000000
H    -3.654000000     4.505000000     0.309000000
O     2.118000000     5.206000000    -8.063000000
H     2.007000000     4.716000000    -7.248000000
H     2.811000000     4.738000000    -8.531000000
O    -0.599000000     3.856000000    -6.286000000
H    -1.350000000     4.426000000    -6.451000000
H    -0.651000000     3.657000000    -5.351000000
O    -1.112000000     7.983000000     1.256000000
H    -1.976000000     7.834000000     0.872000000
H    -0.630000000     7.175000000     1.082000000
O     0.812000000     7.144000000    -6.581000000
H     1.165000000     7.019000000    -5.700000000
H     0.922000000     6.294000000    -7.006000000
O     5.022000000     5.185000000    -5.560000000
H     5.161000000     5.744000000    -4.796000000
H     4.124000000     4.866000000    -5.464000000
O     2.231000000     5.432000000    -1.069000000
H     1.977000000     4.970000000    -1.867000000
H     1.418000000     5.516000000    -0.571000000
O     4.827000000     6.646000000    -3.243000000
H     4.099000000     6.678000000    -2.622000000
H     5.595000000     6.887000000    -2.726000000
O    -2.748000000     8.318000000    -2.762000000
H    -2.382000000     7.534000000    -3.171000000
H    -3.696000000     8.191000000    -2.806000000
O     1.937000000     6.664000000    -3.929000000
H     2.879000000     6.757000000    -4.071000000
H     1.835000000     5.782000000    -3.570000000
O     2.471000000     3.593000000    -5.464000000
H     2.557000000     2.642000000    -5.535000000
H     1.900000000     3.726000000    -4.708000000
O    -0.415000000     5.472000000    -0.468000000
H    -1.050000000     4.816000000    -0.755000000
H    -0.434000000     6.140000000    -1.153000000
O     3.279000000     8.133000000    -1.271000000
H     2.829000000     7.290000000    -1.221000000
H     3.612000000     8.280000000    -0.386000000
O    -1.299000000     3.093000000    -8.678000000
H    -1.151000000     3.463000000    -7.808000000
H    -1.089000000     2.164000000    -8.582000000
