215
-1429.84616
C     4.067000000    -1.111000000    -2.533000000
H     4.020000000    -2.197000000    -2.534000000
C     4.069000000    -0.457000000    -1.287000000
C     4.053000000     0.980000000    -1.454000000
H     3.942000000     1.637000000    -0.596000000
C     3.773000000    -1.059000000     0.073000000
O     4.162000000    -2.423000000     0.078000000
H     2.678000000    -1.112000000     0.169000000
O     4.421000000    -0.269000000     1.077000000
C     3.780000000    -0.063000000     2.308000000
C     3.475000000     1.253000000     2.555000000
H     3.781000000     2.039000000     1.870000000
C     2.659000000     1.560000000     3.624000000
O     2.383000000     2.904000000     3.803000000
C     2.261000000     0.604000000     4.532000000
C     1.283000000     1.062000000     5.579000000
H     1.416000000     0.365000000     6.409000000
C    -0.174000000     1.081000000     5.012000000
C    -1.014000000    -0.063000000     5.087000000
H    -0.572000000    -0.926000000     5.579000000
H     1.637000000     2.036000000     5.924000000
C     2.524000000    -0.712000000     4.283000000
H     2.201000000    -1.555000000     4.887000000
C     3.358000000    -1.010000000     3.186000000
C     3.755000000    -2.483000000     3.058000000
H     3.771000000    -3.074000000     3.976000000
H     4.813000000    -2.388000000     2.805000000
C     2.940000000    -3.259000000     2.010000000
C     1.826000000    -3.912000000     2.530000000
H     1.578000000    -3.879000000     3.588000000
C     3.233000000    -3.261000000     0.633000000
C     2.370000000    -3.997000000    -0.223000000
H     2.504000000    -4.009000000    -1.302000000
C     1.241000000    -4.599000000     0.276000000
O     0.274000000    -4.984000000    -0.682000000
C    -0.859000000    -4.128000000    -0.962000000
C    -1.167000000    -4.266000000    -2.506000000
C    -2.439000000    -3.911000000    -3.064000000
H    -3.278000000    -3.716000000    -2.401000000
C    -0.085000000    -4.623000000    -3.390000000
H     0.959000000    -4.668000000    -3.092000000
O    -1.988000000    -4.545000000    -0.171000000
H    -0.592000000    -3.063000000    -0.893000000
C     0.969000000    -4.559000000     1.636000000
C    -0.338000000    -5.226000000     2.181000000
H    -0.093000000    -5.625000000     3.167000000
H    -0.609000000    -6.062000000     1.532000000
C    -1.379000000    -4.163000000     2.175000000
C    -1.710000000    -3.386000000     3.272000000
H    -1.046000000    -3.347000000     4.132000000
C    -2.162000000    -3.877000000     1.034000000
C    -3.167000000    -2.931000000     0.987000000
H    -3.775000000    -2.770000000     0.101000000
C    -3.381000000    -2.105000000     2.069000000
O    -4.332000000    -1.124000000     2.010000000
C    -3.770000000     0.181000000     1.779000000
C    -4.244000000     0.913000000     0.539000000
C    -5.145000000     0.263000000    -0.367000000
H    -5.541000000    -0.687000000    -0.018000000
C    -3.712000000     2.161000000     0.273000000
H    -2.969000000     2.651000000     0.898000000
O    -3.834000000     0.992000000     3.042000000
H    -2.726000000    -0.037000000     1.511000000
C    -2.675000000    -2.360000000     3.218000000
C    -2.927000000    -1.478000000     4.457000000
H    -2.540000000    -1.916000000     5.379000000
H    -4.010000000    -1.352000000     4.507000000
C    -2.192000000    -0.113000000     4.436000000
C    -2.754000000     1.046000000     3.837000000
C    -1.978000000     2.188000000     3.833000000
H    -2.316000000     3.109000000     3.366000000
C    -0.720000000     2.190000000     4.368000000
O     0.057000000     3.289000000     4.137000000
C     1.161000000     3.338000000     3.172000000
H     0.897000000     2.596000000     2.404000000
C     1.218000000     4.640000000     2.416000000
C     2.437000000     5.073000000     1.913000000
H     3.336000000     4.487000000     2.085000000
C     0.034000000     5.323000000     2.094000000
H    -0.933000000     4.916000000     2.380000000
C     0.131000000     6.490000000     1.337000000
O    -1.000000000     7.206000000     1.070000000
C     1.332000000     6.945000000     0.834000000
H     1.367000000     7.873000000     0.268000000
C     2.449000000     6.217000000     1.158000000
O     3.600000000     6.561000000     0.540000000
C     4.276000000     5.693000000    -0.252000000
C     3.624000000     4.809000000    -1.072000000
H     2.546000000     4.727000000    -0.962000000
C     5.686000000     5.728000000    -0.125000000
H     6.079000000     6.384000000     0.649000000
C     6.392000000     4.701000000    -0.866000000
H     7.447000000     4.493000000    -0.707000000
C     5.823000000     3.864000000    -1.806000000
H     6.418000000     3.140000000    -2.357000000
C     4.430000000     3.902000000    -1.859000000
O     3.860000000     2.983000000    -2.722000000
C     4.058000000     1.610000000    -2.680000000
C     4.028000000     0.854000000    -3.809000000
H     3.897000000     1.335000000    -4.774000000
C     4.011000000    -0.529000000    -3.808000000
O     3.745000000    -1.285000000    -4.964000000
C     3.472000000    -2.605000000    -5.130000000
C     2.180000000    -3.041000000    -5.161000000
H     1.355000000    -2.349000000    -5.011000000
C     4.507000000    -3.550000000    -5.465000000
H     5.537000000    -3.219000000    -5.363000000
C     4.208000000    -4.902000000    -5.672000000
H     5.037000000    -5.548000000    -5.950000000
C     2.922000000    -5.373000000    -5.618000000
H     2.721000000    -6.382000000    -5.968000000
C     1.940000000    -4.391000000    -5.397000000
O     0.685000000    -4.759000000    -5.637000000
C    -0.313000000    -4.582000000    -4.717000000
C    -1.611000000    -4.258000000    -5.257000000
H    -1.682000000    -4.246000000    -6.341000000
C    -2.626000000    -3.919000000    -4.401000000
O    -3.849000000    -3.397000000    -4.938000000
C    -4.889000000    -2.904000000    -4.142000000
C    -4.940000000    -1.522000000    -3.837000000
H    -4.197000000    -0.936000000    -4.372000000
C    -5.836000000    -3.777000000    -3.593000000
H    -5.782000000    -4.848000000    -3.766000000
C    -6.840000000    -3.281000000    -2.845000000
H    -7.635000000    -3.862000000    -2.385000000
C    -6.872000000    -1.882000000    -2.478000000
H    -7.638000000    -1.454000000    -1.837000000
C    -5.921000000    -1.022000000    -2.995000000
O    -6.010000000     0.278000000    -2.631000000
C    -5.389000000     0.923000000    -1.635000000
C    -4.828000000     2.101000000    -1.923000000
H    -5.073000000     2.630000000    -2.841000000
C    -4.036000000     2.769000000    -0.958000000
O    -3.530000000     4.033000000    -1.292000000
C    -3.530000000     5.052000000    -0.383000000
C    -4.572000000     5.233000000     0.535000000
H    -5.545000000     4.753000000     0.590000000
C    -4.358000000     6.077000000     1.672000000
H    -5.124000000     6.147000000     2.440000000
C    -3.179000000     6.782000000     1.740000000
H    -3.074000000     7.474000000     2.571000000
C    -2.187000000     6.662000000     0.781000000
C    -2.344000000     5.797000000    -0.295000000
H    -1.507000000     5.556000000    -0.945000000
C    -0.834000000    -0.327000000    -1.450000000
H    -1.455000000    -1.108000000    -1.881000000
C    -0.584000000    -0.299000000    -0.120000000
H    -0.920000000    -1.132000000     0.493000000
C     0.304000000     0.634000000     0.440000000
H     0.647000000     0.553000000     1.475000000
C     0.882000000     1.598000000    -0.383000000
H     1.547000000     2.402000000    -0.077000000
C     0.413000000     1.728000000    -1.658000000
H     0.674000000     2.554000000    -2.315000000
C    -0.357000000     0.730000000    -2.234000000
C    -0.843000000     0.865000000    -3.679000000
O    -0.488000000     1.842000000    -4.399000000
O    -1.673000000     0.079000000    -4.092000000
O    -3.498000000     5.375000000    -8.276000000
H    -3.766000000     4.779000000    -7.578000000
H    -3.116000000     6.124000000    -7.819000000
O    -0.079000000     5.237000000    -8.903000000
H     0.306000000     5.930000000    -8.367000000
H     0.566000000     4.530000000    -8.879000000
O    -0.866000000     6.909000000    -3.685000000
H    -0.124000000     7.213000000    -3.164000000
H    -0.685000000     7.227000000    -4.570000000
O    -1.885000000     1.922000000    -9.301000000
H    -1.542000000     2.278000000    -8.481000000
H    -1.748000000     0.978000000    -9.228000000
O     3.883000000     4.303000000    -6.534000000
H     3.071000000     4.550000000    -6.091000000
H     4.568000000     4.464000000    -5.885000000
O    -3.970000000     3.667000000    -6.359000000
H    -3.638000000     4.136000000    -5.594000000
H    -4.057000000     2.760000000    -6.065000000
O    -1.135000000    -1.030000000    -9.115000000
H    -1.975000000    -1.321000000    -9.470000000
H    -1.298000000    -0.911000000    -8.179000000
O    -2.019000000    -1.116000000    -6.362000000
H    -1.835000000    -0.951000000    -5.437000000
H    -2.516000000    -1.934000000    -6.365000000
O    -3.604000000     1.177000000    -5.455000000
H    -3.035000000     1.145000000    -4.686000000
H    -3.135000000     0.674000000    -6.120000000
O    -4.145000000     6.794000000    -5.513000000
H    -5.008000000     6.512000000    -5.815000000
H    -3.761000000     6.010000000    -5.121000000
O     1.125000000     0.535000000    -6.360000000
H     0.827000000     0.861000000    -5.511000000
H     0.504000000    -0.159000000    -6.582000000
O    -6.352000000     1.153000000    -5.383000000
H    -6.660000000     1.372000000    -4.504000000
H    -5.398000000     1.131000000    -5.304000000
O     1.287000000     4.369000000    -4.722000000
H     0.876000000     4.887000000    -5.414000000
H     0.819000000     3.534000000    -4.738000000
O    -1.120000000     2.556000000    -6.740000000
H    -1.937000000     3.032000000    -6.589000000
H    -0.821000000     2.309000000    -5.865000000
O     3.195000000    -0.660000000    -7.751000000
H     2.594000000     0.084000000    -7.705000000
H     3.429000000    -0.835000000    -6.840000000
O    -2.499000000     4.616000000    -4.295000000
H    -1.961000000     3.853000000    -4.082000000
H    -2.151000000     5.316000000    -3.743000000
O     1.414000000    -2.490000000    -9.154000000
H     2.131000000    -1.985000000    -8.771000000
H     0.628000000    -1.986000000    -8.945000000
O     2.540000000     2.746000000    -8.454000000
H     1.823000000     2.754000000    -7.820000000
H     3.226000000     3.274000000    -8.046000000
O     3.242000000     6.583000000    -3.945000000
H     2.678000000     5.958000000    -4.400000000
H     4.127000000     6.237000000    -4.064000000
