215
-1441.65241
C    -1.832000000     3.696000000     2.815000000
H    -0.809000000     3.842000000     3.151000000
C    -2.528000000     2.443000000     2.846000000
C    -3.624000000     2.290000000     2.070000000
H    -3.987000000     1.277000000     1.917000000
C    -1.844000000     1.180000000     3.513000000
O    -0.866000000     1.509000000     4.538000000
H    -1.410000000     0.595000000     2.689000000
O    -2.730000000     0.255000000     4.106000000
C    -2.535000000    -1.073000000     3.847000000
C    -3.360000000    -1.689000000     2.903000000
H    -4.235000000    -1.154000000     2.543000000
C    -2.969000000    -2.916000000     2.351000000
O    -3.667000000    -3.379000000     1.294000000
C    -1.786000000    -3.568000000     2.911000000
C    -1.375000000    -4.997000000     2.297000000
H    -0.763000000    -5.425000000     3.094000000
C    -0.496000000    -4.765000000     1.053000000
C     0.894000000    -4.901000000     1.204000000
H     1.373000000    -5.071000000     2.165000000
H    -2.252000000    -5.602000000     2.060000000
C    -1.095000000    -2.976000000     3.983000000
H    -0.198000000    -3.476000000     4.339000000
C    -1.435000000    -1.701000000     4.458000000
C    -0.513000000    -1.124000000     5.518000000
H    -0.060000000    -1.896000000     6.143000000
H    -1.073000000    -0.454000000     6.173000000
C     0.584000000    -0.352000000     4.822000000
C     1.799000000    -0.972000000     4.626000000
H     1.888000000    -1.971000000     5.046000000
C     0.395000000     0.989000000     4.439000000
C     1.406000000     1.675000000     3.867000000
H     1.263000000     2.671000000     3.455000000
C     2.621000000     1.089000000     3.526000000
O     3.613000000     1.835000000     2.995000000
C     3.775000000     1.528000000     1.589000000
C     3.917000000     2.770000000     0.756000000
C     4.496000000     2.796000000    -0.580000000
H     5.007000000     1.920000000    -0.974000000
C     3.425000000     3.934000000     1.317000000
H     2.930000000     4.016000000     2.281000000
O     4.915000000     0.679000000     1.349000000
H     2.865000000     1.185000000     1.076000000
C     2.836000000    -0.265000000     3.909000000
C     4.124000000    -0.916000000     3.583000000
H     4.363000000    -1.783000000     4.203000000
H     4.944000000    -0.197000000     3.639000000
C     4.281000000    -1.506000000     2.192000000
C     3.800000000    -2.781000000     1.880000000
H     3.456000000    -3.380000000     2.719000000
C     4.609000000    -0.651000000     1.198000000
C     4.551000000    -1.041000000    -0.181000000
H     4.846000000    -0.396000000    -1.004000000
C     4.023000000    -2.270000000    -0.505000000
O     3.899000000    -2.618000000    -1.831000000
C     2.507000000    -2.544000000    -2.228000000
C     2.299000000    -1.986000000    -3.631000000
C     2.980000000    -0.869000000    -3.991000000
H     3.680000000    -0.424000000    -3.288000000
C     1.413000000    -2.562000000    -4.578000000
H     0.773000000    -3.374000000    -4.243000000
O     1.910000000    -3.874000000    -2.216000000
H     2.015000000    -1.790000000    -1.595000000
C     3.674000000    -3.211000000     0.520000000
C     3.155000000    -4.661000000     0.309000000
H     3.344000000    -5.229000000     1.223000000
H     3.579000000    -5.198000000    -0.542000000
C     1.694000000    -4.653000000     0.092000000
C     1.117000000    -4.200000000    -1.082000000
C    -0.269000000    -4.103000000    -1.201000000
H    -0.624000000    -3.673000000    -2.134000000
C    -1.084000000    -4.501000000    -0.201000000
O    -2.437000000    -4.275000000    -0.481000000
C    -3.048000000    -3.121000000     0.052000000
H    -2.129000000    -2.563000000     0.285000000
C    -3.933000000    -2.426000000    -0.998000000
C    -5.218000000    -1.987000000    -0.646000000
H    -5.615000000    -2.189000000     0.346000000
C    -3.577000000    -2.306000000    -2.302000000
H    -2.639000000    -2.692000000    -2.693000000
C    -4.378000000    -1.589000000    -3.185000000
O    -3.967000000    -1.369000000    -4.453000000
C    -5.562000000    -0.959000000    -2.805000000
H    -6.015000000    -0.240000000    -3.483000000
C    -6.007000000    -1.185000000    -1.499000000
O    -7.189000000    -0.643000000    -1.109000000
C    -7.320000000     0.421000000    -0.238000000
C    -6.307000000     1.379000000    -0.193000000
H    -5.504000000     1.338000000    -0.925000000
C    -8.361000000     0.469000000     0.668000000
H    -9.107000000    -0.321000000     0.684000000
C    -8.363000000     1.443000000     1.641000000
H    -9.091000000     1.399000000     2.447000000
C    -7.429000000     2.473000000     1.666000000
H    -7.464000000     3.201000000     2.472000000
C    -6.463000000     2.414000000     0.694000000
O    -5.425000000     3.293000000     0.705000000
C    -4.324000000     3.422000000     1.544000000
C    -3.656000000     4.592000000     1.532000000
H    -4.062000000     5.471000000     1.037000000
C    -2.470000000     4.749000000     2.138000000
O    -1.809000000     6.034000000     2.091000000
C    -0.475000000     6.162000000     2.501000000
C     0.584000000     6.148000000     1.589000000
H     0.433000000     6.026000000     0.520000000
C    -0.196000000     6.457000000     3.825000000
H    -1.052000000     6.548000000     4.489000000
C     1.095000000     6.752000000     4.215000000
H     1.306000000     7.067000000     5.234000000
C     2.217000000     6.619000000     3.322000000
H     3.241000000     6.648000000     3.684000000
C     1.889000000     6.330000000     1.978000000
O     2.922000000     6.273000000     1.063000000
C     3.405000000     5.103000000     0.570000000
C     3.924000000     5.104000000    -0.743000000
H     3.896000000     6.061000000    -1.257000000
C     4.513000000     4.011000000    -1.311000000
O     4.905000000     4.172000000    -2.662000000
C     5.252000000     3.161000000    -3.529000000
C     4.286000000     2.552000000    -4.337000000
H     3.274000000     2.942000000    -4.400000000
C     6.496000000     2.530000000    -3.323000000
H     7.169000000     2.730000000    -2.494000000
C     6.813000000     1.356000000    -4.006000000
H     7.632000000     0.710000000    -3.701000000
C     5.833000000     0.813000000    -4.897000000
H     6.032000000    -0.125000000    -5.410000000
C     4.604000000     1.353000000    -4.969000000
O     3.689000000     0.796000000    -5.754000000
C     2.869000000    -0.295000000    -5.279000000
C     1.943000000    -0.884000000    -6.217000000
H     1.704000000    -0.399000000    -7.160000000
C     1.168000000    -1.942000000    -5.782000000
O     0.199000000    -2.293000000    -6.674000000
C    -1.017000000    -2.720000000    -6.223000000
C    -1.564000000    -3.873000000    -6.810000000
H    -0.973000000    -4.457000000    -7.511000000
C    -2.854000000    -4.280000000    -6.419000000
H    -3.309000000    -5.183000000    -6.819000000
C    -3.701000000    -3.431000000    -5.684000000
H    -4.750000000    -3.689000000    -5.560000000
C    -3.135000000    -2.217000000    -5.209000000
C    -1.766000000    -1.887000000    -5.415000000
H    -1.237000000    -1.035000000    -4.996000000
C     0.893000000     1.182000000    -1.487000000
H     1.759000000     1.621000000    -1.975000000
C     1.062000000     0.187000000    -0.523000000
H     2.049000000    -0.209000000    -0.300000000
C     0.024000000    -0.320000000     0.196000000
H     0.257000000    -1.139000000     0.950000000
C    -1.275000000     0.105000000    -0.039000000
H    -2.006000000    -0.228000000     0.693000000
C    -1.526000000     1.025000000    -1.034000000
H    -2.545000000     1.349000000    -1.229000000
C    -0.430000000     1.552000000    -1.796000000
C    -0.662000000     2.590000000    -2.897000000
O    -1.777000000     3.057000000    -3.014000000
O     0.180000000     2.806000000    -3.708000000
O    -3.048000000     5.064000000    -2.080000000
H    -3.830000000     5.068000000    -2.632000000
H    -2.604000000     4.245000000    -2.299000000
O    -7.187000000     2.233000000    -3.611000000
H    -6.258000000     2.439000000    -3.715000000
H    -7.361000000     2.377000000    -2.681000000
O    -0.536000000     7.863000000    -5.985000000
H    -1.083000000     7.306000000    -6.538000000
H    -1.052000000     7.991000000    -5.189000000
O     2.009000000     7.133000000    -4.874000000
H     1.506000000     7.006000000    -5.679000000
H     1.401000000     6.896000000    -4.173000000
O     2.358000000     3.153000000    -8.392000000
H     2.986000000     2.432000000    -8.441000000
H     2.021000000     3.116000000    -7.496000000
O    -1.748000000     4.422000000    -5.116000000
H    -1.617000000     4.048000000    -4.244000000
H    -0.882000000     4.388000000    -5.523000000
O    -2.680000000     1.611000000    -7.402000000
H    -3.438000000     1.058000000    -7.211000000
H    -2.022000000     1.348000000    -6.759000000
O    -3.799000000     6.134000000    -5.896000000
H    -3.035000000     5.662000000    -5.565000000
H    -3.543000000     6.417000000    -6.774000000
O    -4.174000000     1.982000000    -3.657000000
H    -3.411000000     2.253000000    -3.146000000
H    -3.919000000     1.142000000    -4.040000000
O    -1.234000000     3.719000000    -8.525000000
H    -1.736000000     3.033000000    -8.084000000
H    -0.662000000     4.073000000    -7.845000000
O     0.019000000     5.694000000    -2.373000000
H    -0.916000000     5.899000000    -2.368000000
H     0.075000000     4.841000000    -2.804000000
O    -4.637000000     3.559000000    -6.361000000
H    -3.827000000     3.093000000    -6.567000000
H    -4.345000000     4.388000000    -5.979000000
O    -2.641000000     7.724000000    -1.269000000
H    -3.361000000     8.048000000    -0.728000000
H    -2.897000000     6.831000000    -1.499000000
O    -5.625000000     6.061000000    -3.713000000
H    -4.898000000     6.084000000    -4.335000000
H    -6.408000000     6.154000000    -4.256000000
O     1.156000000     3.808000000    -5.800000000
H     2.009000000     4.186000000    -5.584000000
H     0.878000000     3.368000000    -4.996000000
O    -0.478000000     1.243000000    -6.015000000
H    -0.231000000     1.424000000    -5.108000000
H     0.114000000     1.783000000    -6.538000000
O     3.549000000     5.320000000    -5.991000000
H     2.953000000     6.031000000    -5.755000000
H     4.423000000     5.701000000    -5.904000000
O     1.418000000     8.094000000    -1.161000000
H     2.346000000     8.197000000    -1.371000000
H     1.138000000     7.338000000    -1.678000000
O    -2.088000000     8.812000000    -4.027000000
H    -2.291000000     8.197000000    -3.323000000
H    -1.403000000     9.374000000    -3.665000000
