215
-1442.86346
C    -0.152000000     2.761000000     4.439000000
H     0.789000000     2.372000000     4.819000000
C    -1.254000000     1.915000000     4.172000000
C    -2.521000000     2.577000000     3.986000000
H    -3.465000000     2.046000000     3.900000000
C    -1.079000000     0.431000000     4.171000000
O     0.128000000     0.096000000     4.916000000
H    -0.753000000     0.201000000     3.146000000
O    -2.197000000    -0.410000000     4.518000000
C    -2.539000000    -1.422000000     3.692000000
C    -3.517000000    -1.190000000     2.727000000
H    -4.070000000    -0.255000000     2.719000000
C    -3.715000000    -2.231000000     1.814000000
O    -4.517000000    -1.893000000     0.732000000
C    -2.951000000    -3.435000000     1.812000000
C    -3.159000000    -4.446000000     0.721000000
H    -3.005000000    -5.481000000     1.033000000
C    -2.327000000    -4.174000000    -0.496000000
C    -1.099000000    -4.858000000    -0.630000000
H    -0.819000000    -5.531000000     0.176000000
H    -4.233000000    -4.475000000     0.526000000
C    -2.061000000    -3.669000000     2.862000000
H    -1.589000000    -4.643000000     2.962000000
C    -1.809000000    -2.612000000     3.696000000
C    -0.683000000    -2.733000000     4.727000000
H    -0.645000000    -3.797000000     4.968000000
H    -1.044000000    -2.352000000     5.684000000
C     0.618000000    -2.180000000     4.282000000
C     1.517000000    -3.041000000     3.647000000
H     1.314000000    -4.092000000     3.459000000
C     0.903000000    -0.828000000     4.406000000
C     2.100000000    -0.345000000     3.837000000
H     2.376000000     0.702000000     3.924000000
C     3.036000000    -1.120000000     3.248000000
O     4.065000000    -0.571000000     2.512000000
C     3.719000000    -0.473000000     1.147000000
C     3.837000000     1.021000000     0.746000000
C     3.941000000     1.350000000    -0.618000000
H     3.855000000     0.577000000    -1.377000000
C     4.198000000     2.034000000     1.718000000
H     4.361000000     1.799000000     2.766000000
O     4.577000000    -1.291000000     0.396000000
H     2.669000000    -0.751000000     0.973000000
C     2.745000000    -2.532000000     3.132000000
C     3.707000000    -3.388000000     2.366000000
H     3.757000000    -4.428000000     2.695000000
H     4.745000000    -3.074000000     2.494000000
C     3.522000000    -3.455000000     0.784000000
C     2.662000000    -4.371000000     0.253000000
H     2.220000000    -5.114000000     0.913000000
C     3.989000000    -2.481000000    -0.035000000
C     3.612000000    -2.425000000    -1.377000000
H     3.960000000    -1.674000000    -2.082000000
C     2.758000000    -3.334000000    -1.926000000
O     2.363000000    -3.189000000    -3.275000000
C     1.130000000    -2.532000000    -3.527000000
C     1.288000000    -1.617000000    -4.785000000
C     2.501000000    -1.009000000    -5.048000000
H     3.325000000    -1.218000000    -4.372000000
C     0.211000000    -1.315000000    -5.665000000
H    -0.679000000    -1.932000000    -5.569000000
O     0.101000000    -3.482000000    -3.755000000
H     0.958000000    -1.992000000    -2.584000000
C     2.187000000    -4.305000000    -1.073000000
C     1.146000000    -5.323000000    -1.541000000
H     1.072000000    -6.134000000    -0.814000000
H     1.457000000    -5.702000000    -2.517000000
C    -0.285000000    -4.701000000    -1.663000000
C    -0.681000000    -3.817000000    -2.701000000
C    -1.861000000    -3.123000000    -2.590000000
H    -2.049000000    -2.355000000    -3.336000000
C    -2.703000000    -3.288000000    -1.484000000
O    -3.827000000    -2.487000000    -1.379000000
C    -3.801000000    -1.446000000    -0.410000000
H    -2.741000000    -1.421000000    -0.118000000
C    -4.248000000    -0.120000000    -1.053000000
C    -5.060000000     0.758000000    -0.335000000
H    -5.432000000     0.495000000     0.652000000
C    -3.845000000     0.165000000    -2.347000000
H    -3.152000000    -0.480000000    -2.880000000
C    -4.147000000     1.462000000    -2.834000000
O    -3.884000000     1.739000000    -4.145000000
C    -4.823000000     2.403000000    -2.074000000
H    -5.155000000     3.359000000    -2.470000000
C    -5.401000000     1.992000000    -0.834000000
O    -6.234000000     2.848000000    -0.140000000
C    -6.092000000     3.087000000     1.228000000
C    -4.959000000     3.646000000     1.835000000
H    -4.116000000     3.740000000     1.156000000
C    -7.251000000     2.817000000     1.999000000
H    -8.158000000     2.395000000     1.573000000
C    -7.258000000     3.098000000     3.378000000
H    -8.139000000     2.951000000     3.997000000
C    -6.093000000     3.612000000     4.022000000
H    -6.204000000     3.957000000     5.046000000
C    -4.984000000     3.933000000     3.230000000
O    -3.835000000     4.561000000     3.744000000
C    -2.614000000     3.993000000     4.014000000
C    -1.506000000     4.771000000     4.334000000
H    -1.708000000     5.838000000     4.368000000
C    -0.287000000     4.153000000     4.608000000
O     0.818000000     4.968000000     5.059000000
C     2.180000000     4.718000000     4.846000000
C     2.727000000     4.691000000     3.561000000
H     2.046000000     4.929000000     2.748000000
C     2.910000000     4.426000000     5.971000000
H     2.393000000     4.467000000     6.927000000
C     4.281000000     4.056000000     5.833000000
H     4.932000000     3.943000000     6.696000000
C     4.846000000     3.969000000     4.562000000
H     5.905000000     3.730000000     4.510000000
C     4.141000000     4.418000000     3.391000000
O     4.738000000     4.327000000     2.162000000
C     4.392000000     3.365000000     1.286000000
C     4.428000000     3.655000000    -0.074000000
H     4.655000000     4.662000000    -0.415000000
C     4.336000000     2.657000000    -1.002000000
O     4.356000000     3.047000000    -2.336000000
C     4.902000000     2.167000000    -3.263000000
C     4.211000000     1.823000000    -4.361000000
H     3.165000000     2.106000000    -4.444000000
C     6.227000000     1.775000000    -3.147000000
H     6.872000000     2.073000000    -2.324000000
C     6.832000000     0.995000000    -4.149000000
H     7.885000000     0.733000000    -4.096000000
C     6.030000000     0.544000000    -5.190000000
H     6.429000000    -0.161000000    -5.916000000
C     4.702000000     0.972000000    -5.343000000
O     3.833000000     0.443000000    -6.330000000
C     2.591000000    -0.086000000    -6.080000000
C     1.525000000     0.252000000    -6.903000000
H     1.617000000     0.993000000    -7.693000000
C     0.318000000    -0.381000000    -6.677000000
O    -0.849000000    -0.042000000    -7.367000000
C    -2.110000000     0.033000000    -6.779000000
C    -3.058000000    -1.016000000    -7.105000000
H    -2.877000000    -1.750000000    -7.886000000
C    -4.289000000    -1.120000000    -6.446000000
H    -5.023000000    -1.876000000    -6.711000000
C    -4.618000000    -0.021000000    -5.670000000
H    -5.613000000    -0.014000000    -5.232000000
C    -3.649000000     0.841000000    -5.164000000
C    -2.414000000     0.923000000    -5.804000000
H    -1.680000000     1.673000000    -5.519000000
C     0.476000000     0.989000000    -1.841000000
H     1.264000000     0.880000000    -2.582000000
C     0.447000000     0.021000000    -0.900000000
H     1.096000000    -0.851000000    -0.879000000
C    -0.464000000     0.068000000     0.159000000
H    -0.489000000    -0.665000000     1.030000000
C    -1.415000000     1.077000000     0.164000000
H    -2.188000000     1.198000000     0.919000000
C    -1.436000000     2.039000000    -0.846000000
H    -2.151000000     2.858000000    -0.847000000
C    -0.472000000     1.987000000    -1.853000000
C    -0.301000000     3.106000000    -2.861000000
O    -1.105000000     3.967000000    -2.927000000
O     0.824000000     3.301000000    -3.361000000
O    -2.371000000     6.257000000    -7.444000000
H    -2.285000000     5.483000000    -6.888000000
H    -3.204000000     6.649000000    -7.183000000
O     3.801000000     5.421000000    -6.338000000
H     3.367000000     5.327000000    -5.490000000
H     3.719000000     4.558000000    -6.745000000
O    -3.498000000     2.107000000    -8.534000000
H    -3.201000000     1.518000000    -7.841000000
H    -4.353000000     2.416000000    -8.236000000
O     1.632000000     5.284000000    -0.942000000
H     2.376000000     5.147000000    -1.528000000
H     1.019000000     5.814000000    -1.451000000
O     0.163000000     6.508000000    -2.764000000
H    -0.280000000     5.753000000    -3.152000000
H    -0.083000000     7.244000000    -3.323000000
O    -0.786000000     4.378000000    -9.055000000
H    -1.292000000     5.024000000    -8.561000000
H    -1.447000000     3.832000000    -9.481000000
O    -2.063000000     5.861000000     1.293000000
H    -2.768000000     5.286000000     0.993000000
H    -1.261000000     5.375000000     1.102000000
O    -5.817000000     6.228000000    -0.526000000
H    -5.056000000     5.853000000    -0.970000000
H    -5.681000000     7.174000000    -0.577000000
O     3.782000000     7.606000000    -3.882000000
H     3.553000000     6.708000000    -3.644000000
H     3.869000000     8.061000000    -3.044000000
O    -5.643000000     4.184000000    -6.551000000
H    -5.560000000     4.869000000    -5.889000000
H    -6.381000000     3.652000000    -6.255000000
O    -3.194000000     5.302000000    -1.744000000
H    -2.984000000     6.234000000    -1.809000000
H    -2.442000000     4.859000000    -2.137000000
O     2.861000000     5.118000000    -3.593000000
H     3.443000000     4.465000000    -3.204000000
H     1.985000000     4.743000000    -3.499000000
O     3.166000000     6.478000000     0.782000000
H     3.427000000     5.759000000     1.358000000
H     2.618000000     6.063000000     0.115000000
O     3.466000000     3.128000000    -7.960000000
H     2.857000000     3.281000000    -8.682000000
H     2.920000000     2.781000000    -7.255000000
O    -2.975000000     7.883000000    -1.948000000
H    -2.494000000     8.626000000    -1.584000000
H    -2.915000000     8.000000000    -2.896000000
O    -2.241000000     4.415000000    -5.280000000
H    -1.827000000     4.230000000    -4.437000000
H    -2.857000000     3.694000000    -5.407000000
O     1.305000000     3.087000000    -5.961000000
H     1.146000000     3.120000000    -5.018000000
H     0.604000000     3.618000000    -6.341000000
O     0.145000000     3.925000000     0.740000000
H    -0.132000000     3.042000000     0.496000000
H     0.838000000     4.140000000     0.115000000
O    -0.331000000     9.250000000    -3.964000000
H     0.243000000     9.377000000    -4.719000000
H     0.079000000     9.758000000    -3.264000000
