215
-1457.58274
C    -0.356000000     2.381000000     5.123000000
H     0.682000000     2.091000000     5.266000000
C    -1.292000000     1.561000000     4.523000000
C    -2.514000000     2.108000000     4.149000000
H    -3.257000000     1.484000000     3.659000000
C    -0.965000000     0.091000000     4.255000000
O     0.171000000    -0.292000000     5.081000000
H    -0.610000000    -0.053000000     3.223000000
O    -2.047000000    -0.762000000     4.610000000
C    -2.289000000    -1.824000000     3.720000000
C    -3.269000000    -1.562000000     2.767000000
H    -3.939000000    -0.716000000     2.904000000
C    -3.361000000    -2.537000000     1.728000000
O    -4.316000000    -2.177000000     0.744000000
C    -2.643000000    -3.749000000     1.722000000
C    -2.810000000    -4.766000000     0.641000000
H    -2.442000000    -5.751000000     0.935000000
C    -1.892000000    -4.324000000    -0.558000000
C    -0.588000000    -4.850000000    -0.739000000
H    -0.143000000    -5.490000000     0.018000000
H    -3.832000000    -4.874000000     0.271000000
C    -1.710000000    -3.945000000     2.715000000
H    -1.289000000    -4.947000000     2.712000000
C    -1.434000000    -2.960000000     3.676000000
C    -0.373000000    -3.156000000     4.681000000
H    -0.203000000    -4.219000000     4.863000000
H    -0.747000000    -2.868000000     5.666000000
C     0.988000000    -2.444000000     4.235000000
C     1.948000000    -3.184000000     3.492000000
H     1.810000000    -4.224000000     3.206000000
C     1.167000000    -1.078000000     4.473000000
C     2.330000000    -0.567000000     4.074000000
H     2.536000000     0.493000000     4.199000000
C     3.195000000    -1.207000000     3.244000000
O     4.101000000    -0.406000000     2.613000000
C     3.778000000    -0.005000000     1.225000000
C     4.062000000     1.457000000     0.898000000
C     4.610000000     1.868000000    -0.323000000
H     5.003000000     1.093000000    -0.977000000
C     3.734000000     2.527000000     1.710000000
H     3.238000000     2.237000000     2.633000000
O     4.581000000    -0.873000000     0.406000000
H     2.719000000    -0.212000000     1.007000000
C     3.052000000    -2.537000000     2.968000000
C     3.990000000    -3.279000000     1.958000000
H     3.955000000    -4.360000000     2.110000000
H     5.006000000    -2.935000000     2.161000000
C     3.693000000    -3.123000000     0.472000000
C     2.914000000    -4.139000000    -0.164000000
H     2.718000000    -5.035000000     0.420000000
C     4.015000000    -1.940000000    -0.206000000
C     3.674000000    -1.891000000    -1.556000000
H     4.042000000    -1.060000000    -2.153000000
C     3.012000000    -2.884000000    -2.155000000
O     2.610000000    -2.587000000    -3.466000000
C     1.289000000    -2.115000000    -3.708000000
C     1.247000000    -1.006000000    -4.821000000
C     2.360000000    -0.163000000    -4.975000000
H     3.238000000    -0.339000000    -4.358000000
C     0.074000000    -0.845000000    -5.581000000
H    -0.844000000    -1.382000000    -5.358000000
O     0.391000000    -3.218000000    -3.960000000
H     0.847000000    -1.635000000    -2.822000000
C     2.545000000    -4.062000000    -1.480000000
C     1.525000000    -5.081000000    -2.027000000
H     1.564000000    -6.082000000    -1.592000000
H     1.752000000    -5.214000000    -3.087000000
C     0.180000000    -4.412000000    -1.879000000
C    -0.375000000    -3.643000000    -2.858000000
C    -1.614000000    -3.094000000    -2.686000000
H    -1.974000000    -2.388000000    -3.430000000
C    -2.416000000    -3.490000000    -1.616000000
O    -3.719000000    -2.961000000    -1.417000000
C    -3.770000000    -1.822000000    -0.484000000
H    -2.742000000    -1.436000000    -0.408000000
C    -4.480000000    -0.620000000    -1.087000000
C    -5.072000000     0.332000000    -0.267000000
H    -5.070000000     0.218000000     0.814000000
C    -4.328000000    -0.282000000    -2.478000000
H    -3.880000000    -1.037000000    -3.119000000
C    -4.830000000     0.914000000    -2.951000000
O    -4.778000000     1.155000000    -4.340000000
C    -5.494000000     1.826000000    -2.138000000
H    -5.857000000     2.788000000    -2.492000000
C    -5.643000000     1.481000000    -0.775000000
O    -6.152000000     2.538000000    -0.075000000
C    -6.103000000     2.595000000     1.271000000
C    -4.992000000     3.100000000     1.934000000
H    -4.115000000     3.447000000     1.395000000
C    -7.219000000     2.172000000     2.015000000
H    -8.080000000     1.897000000     1.411000000
C    -7.252000000     2.299000000     3.409000000
H    -8.150000000     2.003000000     3.944000000
C    -6.165000000     2.923000000     4.054000000
H    -6.176000000     3.209000000     5.102000000
C    -5.023000000     3.213000000     3.360000000
O    -4.039000000     3.931000000     4.012000000
C    -2.784000000     3.446000000     4.437000000
C    -1.846000000     4.281000000     5.072000000
H    -2.071000000     5.340000000     5.172000000
C    -0.608000000     3.741000000     5.295000000
O     0.338000000     4.588000000     5.843000000
C     1.622000000     4.617000000     5.461000000
C     1.915000000     4.890000000     4.124000000
H     1.112000000     5.240000000     3.480000000
C     2.621000000     4.185000000     6.321000000
H     2.332000000     4.015000000     7.355000000
C     3.929000000     4.093000000     5.866000000
H     4.677000000     3.688000000     6.543000000
C     4.196000000     4.412000000     4.504000000
H     5.230000000     4.227000000     4.223000000
C     3.218000000     4.801000000     3.652000000
O     3.488000000     4.920000000     2.256000000
C     3.895000000     3.910000000     1.382000000
C     4.385000000     4.207000000     0.046000000
H     4.543000000     5.233000000    -0.276000000
C     4.686000000     3.158000000    -0.791000000
O     5.338000000     3.487000000    -2.006000000
C     5.407000000     2.624000000    -3.070000000
C     4.364000000     2.547000000    -3.921000000
H     3.420000000     3.056000000    -3.744000000
C     6.716000000     2.141000000    -3.437000000
H     7.553000000     2.338000000    -2.772000000
C     6.866000000     1.377000000    -4.560000000
H     7.834000000     0.942000000    -4.793000000
C     5.712000000     1.255000000    -5.406000000
H     5.765000000     0.657000000    -6.312000000
C     4.439000000     1.802000000    -5.099000000
O     3.340000000     1.723000000    -5.981000000
C     2.221000000     0.965000000    -5.788000000
C     1.098000000     1.079000000    -6.560000000
H     1.011000000     1.963000000    -7.186000000
C     0.051000000     0.216000000    -6.501000000
O    -1.070000000     0.462000000    -7.241000000
C    -2.273000000     0.092000000    -6.745000000
C    -2.909000000    -1.018000000    -7.355000000
H    -2.333000000    -1.613000000    -8.059000000
C    -4.224000000    -1.373000000    -7.060000000
H    -4.594000000    -2.210000000    -7.647000000
C    -4.889000000    -0.658000000    -6.036000000
H    -5.878000000    -0.952000000    -5.696000000
C    -4.172000000     0.413000000    -5.349000000
C    -2.911000000     0.754000000    -5.707000000
H    -2.391000000     1.609000000    -5.282000000
C    -0.611000000     1.274000000    -2.004000000
H    -0.029000000     1.207000000    -2.920000000
C    -0.302000000     0.453000000    -0.889000000
H     0.529000000    -0.245000000    -0.937000000
C    -1.099000000     0.626000000     0.239000000
H    -0.835000000     0.089000000     1.065000000
C    -2.137000000     1.537000000     0.261000000
H    -2.604000000     1.659000000     1.235000000
C    -2.552000000     2.201000000    -0.877000000
H    -3.428000000     2.844000000    -0.906000000
C    -1.708000000     2.136000000    -1.995000000
C    -1.883000000     3.157000000    -3.130000000
O    -2.828000000     3.895000000    -3.097000000
O    -1.013000000     3.337000000    -3.934000000
O     0.180000000     6.616000000    -1.722000000
H     1.108000000     6.749000000    -1.914000000
H     0.174000000     6.074000000    -0.933000000
O     2.439000000     6.684000000    -3.883000000
H     2.009000000     6.216000000    -4.599000000
H     3.361000000     6.714000000    -4.135000000
O    -2.950000000     7.391000000    -0.039000000
H    -2.506000000     6.551000000     0.074000000
H    -3.337000000     7.575000000     0.817000000
O    -1.150000000     9.940000000    -4.547000000
H    -2.057000000    10.203000000    -4.392000000
H    -1.183000000     8.984000000    -4.596000000
O     2.583000000     4.450000000    -6.548000000
H     1.652000000     4.565000000    -6.739000000
H     2.600000000     3.915000000    -5.754000000
O    -0.785000000     7.073000000    -4.687000000
H    -0.145000000     6.993000000    -3.979000000
H    -1.224000000     6.222000000    -4.710000000
O    -3.063000000     4.961000000    -5.728000000
H    -2.824000000     4.442000000    -4.960000000
H    -3.448000000     5.760000000    -5.367000000
O    -0.706000000     5.783000000     0.852000000
H     0.198000000     6.076000000     0.974000000
H    -0.656000000     4.829000000     0.896000000
O    -6.845000000     7.013000000    -2.783000000
H    -6.873000000     6.404000000    -3.520000000
H    -6.055000000     6.770000000    -2.300000000
O    -4.123000000     6.071000000    -2.308000000
H    -3.461000000     6.306000000    -1.658000000
H    -3.861000000     5.203000000    -2.615000000
O    -6.075000000     2.709000000    -6.293000000
H    -5.598000000     2.082000000    -5.748000000
H    -5.761000000     2.542000000    -7.181000000
O    -1.239000000     7.973000000    -7.699000000
H    -1.027000000     7.349000000    -7.005000000
H    -2.187000000     8.089000000    -7.635000000
O     1.405000000     3.993000000    -3.201000000
H     1.010000000     4.846000000    -3.021000000
H     0.676000000     3.452000000    -3.507000000
O    -6.236000000     4.971000000    -4.833000000
H    -6.404000000     4.081000000    -5.145000000
H    -5.402000000     5.211000000    -5.236000000
O    -0.237000000     4.594000000    -6.119000000
H    -1.146000000     4.572000000    -6.420000000
H    -0.278000000     4.296000000    -5.211000000
O    -4.121000000     7.139000000    -4.962000000
H    -4.331000000     6.835000000    -4.079000000
H    -3.908000000     8.066000000    -4.851000000
O     0.591000000     3.443000000     0.184000000
H     1.431000000     3.503000000    -0.269000000
H     0.076000000     2.834000000    -0.345000000
O    -4.264000000     9.095000000    -1.935000000
H    -3.727000000     8.321000000    -1.766000000
H    -4.875000000     9.129000000    -1.199000000
O    -3.761000000     5.268000000    -8.348000000
H    -3.936000000     4.385000000    -8.023000000
H    -3.541000000     5.772000000    -7.565000000
