215
-1441.53012
C    -0.903000000     2.687000000     4.533000000
H    -0.040000000     2.283000000     5.055000000
C    -1.812000000     1.780000000     4.049000000
C    -2.935000000     2.271000000     3.354000000
H    -3.677000000     1.522000000     3.090000000
C    -1.462000000     0.255000000     3.971000000
O    -0.366000000    -0.094000000     4.843000000
H    -1.116000000     0.063000000     2.945000000
O    -2.604000000    -0.620000000     4.253000000
C    -2.714000000    -1.728000000     3.496000000
C    -3.621000000    -1.636000000     2.466000000
H    -4.291000000    -0.781000000     2.454000000
C    -3.665000000    -2.592000000     1.496000000
O    -4.440000000    -2.286000000     0.411000000
C    -2.926000000    -3.763000000     1.638000000
C    -2.951000000    -4.871000000     0.570000000
H    -2.711000000    -5.857000000     0.973000000
C    -1.955000000    -4.512000000    -0.551000000
C    -0.620000000    -4.862000000    -0.436000000
H    -0.243000000    -5.447000000     0.398000000
H    -3.925000000    -4.966000000     0.085000000
C    -1.981000000    -3.879000000     2.695000000
H    -1.383000000    -4.772000000     2.859000000
C    -1.843000000    -2.811000000     3.621000000
C    -0.826000000    -2.940000000     4.737000000
H    -0.697000000    -4.003000000     4.952000000
H    -1.199000000    -2.474000000     5.651000000
C     0.508000000    -2.296000000     4.457000000
C     1.578000000    -3.042000000     3.925000000
H     1.509000000    -4.108000000     3.723000000
C     0.628000000    -0.915000000     4.544000000
C     1.823000000    -0.302000000     4.159000000
H     2.021000000     0.767000000     4.168000000
C     2.902000000    -1.060000000     3.711000000
O     3.923000000    -0.298000000     3.148000000
C     3.920000000    -0.031000000     1.722000000
C     4.325000000     1.340000000     1.330000000
C     4.937000000     1.684000000     0.133000000
H     5.171000000     0.885000000    -0.567000000
C     3.996000000     2.448000000     2.134000000
H     3.563000000     2.208000000     3.102000000
O     4.855000000    -0.975000000     1.142000000
H     2.912000000    -0.092000000     1.286000000
C     2.809000000    -2.446000000     3.583000000
C     3.983000000    -3.113000000     2.875000000
H     4.084000000    -4.116000000     3.294000000
H     4.966000000    -2.674000000     3.057000000
C     3.725000000    -3.119000000     1.334000000
C     2.934000000    -4.031000000     0.700000000
H     2.439000000    -4.865000000     1.190000000
C     4.294000000    -2.056000000     0.548000000
C     3.963000000    -1.846000000    -0.792000000
H     4.415000000    -1.027000000    -1.346000000
C     3.165000000    -2.804000000    -1.375000000
O     2.852000000    -2.717000000    -2.714000000
C     1.574000000    -2.330000000    -3.165000000
C     1.709000000    -1.417000000    -4.390000000
C     2.611000000    -0.269000000    -4.295000000
H     3.292000000    -0.145000000    -3.457000000
C     0.875000000    -1.581000000    -5.507000000
H     0.224000000    -2.437000000    -5.662000000
O     0.757000000    -3.439000000    -3.522000000
H     1.273000000    -1.697000000    -2.317000000
C     2.753000000    -3.950000000    -0.708000000
C     1.805000000    -4.992000000    -1.419000000
H     1.760000000    -5.945000000    -0.887000000
H     2.148000000    -5.193000000    -2.436000000
C     0.331000000    -4.426000000    -1.362000000
C    -0.134000000    -3.703000000    -2.459000000
C    -1.446000000    -3.237000000    -2.532000000
H    -1.777000000    -2.506000000    -3.266000000
C    -2.392000000    -3.657000000    -1.594000000
O    -3.654000000    -3.115000000    -1.638000000
C    -3.718000000    -1.937000000    -0.762000000
H    -2.698000000    -1.668000000    -0.449000000
C    -4.231000000    -0.698000000    -1.579000000
C    -5.168000000     0.144000000    -0.925000000
H    -5.480000000    -0.046000000     0.098000000
C    -3.855000000    -0.410000000    -2.890000000
H    -3.141000000    -1.017000000    -3.440000000
C    -4.312000000     0.726000000    -3.466000000
O    -3.961000000     1.117000000    -4.740000000
C    -5.203000000     1.567000000    -2.815000000
H    -5.525000000     2.522000000    -3.225000000
C    -5.659000000     1.260000000    -1.558000000
O    -6.593000000     2.101000000    -0.989000000
C    -6.597000000     2.567000000     0.334000000
C    -5.481000000     3.170000000     0.944000000
H    -4.637000000     3.383000000     0.294000000
C    -7.776000000     2.316000000     1.059000000
H    -8.617000000     1.901000000     0.510000000
C    -7.771000000     2.530000000     2.407000000
H    -8.688000000     2.333000000     2.957000000
C    -6.545000000     2.959000000     3.053000000
H    -6.480000000     3.107000000     4.128000000
C    -5.483000000     3.400000000     2.285000000
O    -4.364000000     4.097000000     2.724000000
C    -3.165000000     3.557000000     3.183000000
C    -2.234000000     4.481000000     3.646000000
H    -2.388000000     5.555000000     3.579000000
C    -1.117000000     4.039000000     4.369000000
O    -0.333000000     5.020000000     4.995000000
C     1.091000000     4.962000000     4.960000000
C     1.832000000     4.855000000     3.786000000
H     1.290000000     4.681000000     2.860000000
C     1.747000000     5.053000000     6.141000000
H     1.231000000     5.189000000     7.088000000
C     3.151000000     5.175000000     6.245000000
H     3.650000000     5.149000000     7.210000000
C     3.948000000     5.067000000     5.049000000
H     5.032000000     5.140000000     5.041000000
C     3.262000000     4.804000000     3.823000000
O     4.043000000     4.813000000     2.694000000
C     4.153000000     3.757000000     1.750000000
C     4.777000000     3.979000000     0.532000000
H     5.076000000     4.990000000     0.270000000
C     5.113000000     2.977000000    -0.263000000
O     5.861000000     3.266000000    -1.466000000
C     5.715000000     2.507000000    -2.616000000
C     4.535000000     2.463000000    -3.353000000
H     3.641000000     2.939000000    -2.957000000
C     6.921000000     2.037000000    -3.156000000
H     7.833000000     2.223000000    -2.595000000
C     6.903000000     1.404000000    -4.372000000
H     7.805000000     1.059000000    -4.871000000
C     5.690000000     1.280000000    -5.078000000
H     5.613000000     0.753000000    -6.025000000
C     4.516000000     1.875000000    -4.566000000
O     3.307000000     1.779000000    -5.176000000
C     2.504000000     0.705000000    -5.241000000
C     1.583000000     0.677000000    -6.236000000
H     1.423000000     1.465000000    -6.967000000
C     0.751000000    -0.431000000    -6.365000000
O    -0.154000000    -0.376000000    -7.357000000
C    -1.455000000    -0.484000000    -6.999000000
C    -2.256000000    -1.365000000    -7.704000000
H    -1.817000000    -1.860000000    -8.566000000
C    -3.612000000    -1.573000000    -7.330000000
H    -4.188000000    -2.255000000    -7.951000000
C    -4.170000000    -0.721000000    -6.376000000
H    -5.195000000    -0.868000000    -6.044000000
C    -3.418000000     0.240000000    -5.645000000
C    -2.063000000     0.303000000    -6.010000000
H    -1.440000000     0.947000000    -5.396000000
C     0.845000000     1.833000000    -2.004000000
H     1.505000000     2.351000000    -2.696000000
C     1.349000000     0.785000000    -1.175000000
H     2.415000000     0.572000000    -1.174000000
C     0.586000000     0.005000000    -0.330000000
H     0.934000000    -0.913000000     0.174000000
C    -0.708000000     0.422000000    -0.166000000
H    -1.361000000    -0.127000000     0.507000000
C    -1.233000000     1.497000000    -0.874000000
H    -2.259000000     1.826000000    -0.729000000
C    -0.526000000     2.149000000    -1.859000000
C    -1.109000000     3.224000000    -2.763000000
O    -2.170000000     3.715000000    -2.589000000
O    -0.454000000     3.617000000    -3.747000000
O     1.383000000     9.259000000    -2.674000000
H     1.694000000     8.582000000    -3.276000000
H     2.180000000     9.605000000    -2.272000000
O     2.308000000     7.311000000    -0.094000000
H     1.733000000     6.566000000    -0.270000000
H     2.220000000     7.465000000     0.847000000
O    -3.836000000     5.594000000    -1.650000000
H    -3.486000000     4.894000000    -2.201000000
H    -4.264000000     6.191000000    -2.264000000
O     1.143000000     7.376000000    -5.195000000
H     1.613000000     6.772000000    -5.769000000
H     0.980000000     6.872000000    -4.398000000
O    -2.520000000     3.546000000    -5.559000000
H    -1.583000000     3.568000000    -5.364000000
H    -2.944000000     3.729000000    -4.721000000
O    -0.362000000     7.255000000     1.684000000
H    -1.004000000     7.590000000     2.310000000
H    -0.720000000     6.414000000     1.400000000
O    -6.918000000     6.138000000    -2.352000000
H    -6.970000000     5.515000000    -1.627000000
H    -6.732000000     5.597000000    -3.120000000
O    -2.026000000     4.931000000     0.482000000
H    -2.662000000     4.576000000     1.104000000
H    -2.488000000     4.937000000    -0.356000000
O    -2.601000000     4.377000000    -9.150000000
H    -3.465000000     4.677000000    -8.868000000
H    -2.648000000     3.423000000    -9.091000000
O     1.005000000     3.943000000    -8.225000000
H     0.108000000     3.618000000    -8.302000000
H     1.476000000     3.516000000    -8.941000000
O    -4.136000000     6.620000000     1.487000000
H    -3.703000000     6.330000000     0.684000000
H    -4.365000000     5.810000000     1.943000000
O     0.931000000     5.736000000    -2.936000000
H     0.888000000     5.677000000    -1.982000000
H     0.383000000     5.015000000    -3.245000000
O     1.636000000     4.539000000    -5.613000000
H     1.524000000     4.238000000    -6.515000000
H     0.915000000     4.131000000    -5.134000000
O    -5.551000000     5.568000000    -6.775000000
H    -5.434000000     5.865000000    -7.678000000
H    -5.402000000     4.623000000    -6.813000000
O    -1.779000000     7.882000000    -4.940000000
H    -1.808000000     7.105000000    -5.499000000
H    -0.858000000     8.140000000    -4.936000000
O     0.659000000     5.015000000    -0.253000000
H     0.881000000     4.100000000    -0.084000000
H    -0.297000000     5.027000000    -0.291000000
O     3.802000000     5.603000000    -4.273000000
H     3.514000000     4.896000000    -4.850000000
H     3.006000000     5.883000000    -3.822000000
O    -4.193000000     7.930000000    -3.266000000
H    -4.722000000     7.888000000    -4.063000000
H    -3.330000000     8.217000000    -3.566000000
O    -4.914000000     2.819000000    -6.698000000
H    -4.011000000     3.080000000    -6.514000000
H    -5.037000000     2.014000000    -6.194000000
