215
-1440.22935
C    -1.233000000     2.640000000     4.363000000
H    -0.330000000     2.259000000     4.833000000
C    -2.146000000     1.708000000     3.798000000
C    -3.357000000     2.184000000     3.252000000
H    -4.082000000     1.467000000     2.874000000
C    -1.774000000     0.192000000     3.762000000
O    -0.974000000    -0.213000000     4.868000000
H    -1.205000000     0.119000000     2.823000000
O    -2.889000000    -0.657000000     3.776000000
C    -2.940000000    -1.759000000     2.869000000
C    -3.768000000    -1.551000000     1.768000000
H    -4.378000000    -0.654000000     1.703000000
C    -3.952000000    -2.559000000     0.784000000
O    -4.642000000    -2.308000000    -0.359000000
C    -3.110000000    -3.701000000     0.951000000
C    -3.104000000    -4.748000000    -0.102000000
H    -2.892000000    -5.772000000     0.211000000
C    -2.051000000    -4.313000000    -1.132000000
C    -0.750000000    -4.700000000    -0.828000000
H    -0.576000000    -5.332000000     0.039000000
H    -4.021000000    -4.781000000    -0.693000000
C    -2.260000000    -3.856000000     2.064000000
H    -1.669000000    -4.768000000     2.068000000
C    -2.160000000    -2.885000000     3.048000000
C    -1.427000000    -3.090000000     4.345000000
H    -1.194000000    -4.146000000     4.490000000
H    -2.019000000    -2.672000000     5.163000000
C    -0.063000000    -2.441000000     4.306000000
C     0.999000000    -3.161000000     3.860000000
H     0.776000000    -4.189000000     3.586000000
C     0.075000000    -1.061000000     4.585000000
C     1.291000000    -0.420000000     4.406000000
H     1.303000000     0.607000000     4.762000000
C     2.367000000    -1.171000000     3.947000000
O     3.457000000    -0.413000000     3.545000000
C     3.726000000    -0.194000000     2.141000000
C     4.298000000     1.190000000     1.822000000
C     5.242000000     1.345000000     0.833000000
H     5.744000000     0.510000000     0.351000000
C     3.822000000     2.286000000     2.536000000
H     3.116000000     2.162000000     3.353000000
O     4.611000000    -1.166000000     1.590000000
H     2.744000000    -0.280000000     1.654000000
C     2.214000000    -2.571000000     3.610000000
C     3.377000000    -3.424000000     3.080000000
H     3.186000000    -4.464000000     3.354000000
H     4.360000000    -3.141000000     3.462000000
C     3.438000000    -3.277000000     1.519000000
C     2.690000000    -4.138000000     0.756000000
H     2.128000000    -4.937000000     1.233000000
C     4.014000000    -2.217000000     0.865000000
C     3.963000000    -2.086000000    -0.509000000
H     4.294000000    -1.171000000    -0.994000000
C     3.225000000    -2.949000000    -1.292000000
O     3.155000000    -2.713000000    -2.621000000
C     1.851000000    -2.196000000    -3.125000000
C     2.082000000    -1.025000000    -4.084000000
C     3.205000000    -0.177000000    -3.934000000
H     3.970000000    -0.505000000    -3.234000000
C     1.088000000    -0.747000000    -5.039000000
H     0.265000000    -1.454000000    -5.102000000
O     1.066000000    -3.276000000    -3.680000000
H     1.319000000    -1.774000000    -2.260000000
C     2.529000000    -3.968000000    -0.664000000
C     1.652000000    -5.015000000    -1.424000000
H     1.634000000    -5.949000000    -0.859000000
H     2.155000000    -5.135000000    -2.385000000
C     0.294000000    -4.398000000    -1.717000000
C     0.028000000    -3.678000000    -2.867000000
C    -1.280000000    -3.188000000    -3.081000000
H    -1.365000000    -2.620000000    -4.004000000
C    -2.294000000    -3.543000000    -2.238000000
O    -3.500000000    -2.930000000    -2.329000000
C    -3.780000000    -1.843000000    -1.436000000
H    -2.831000000    -1.614000000    -0.930000000
C    -4.362000000    -0.652000000    -2.108000000
C    -5.159000000     0.159000000    -1.332000000
H    -5.486000000    -0.091000000    -0.326000000
C    -4.013000000    -0.307000000    -3.394000000
H    -3.282000000    -0.925000000    -3.910000000
C    -4.407000000     0.979000000    -3.850000000
O    -3.932000000     1.455000000    -5.076000000
C    -5.246000000     1.778000000    -3.106000000
H    -5.550000000     2.724000000    -3.547000000
C    -5.631000000     1.357000000    -1.859000000
O    -6.612000000     2.098000000    -1.195000000
C    -6.723000000     2.435000000     0.117000000
C    -5.683000000     3.099000000     0.745000000
H    -4.818000000     3.444000000     0.185000000
C    -7.825000000     2.112000000     0.909000000
H    -8.666000000     1.607000000     0.440000000
C    -7.923000000     2.516000000     2.298000000
H    -8.878000000     2.453000000     2.815000000
C    -6.845000000     3.052000000     2.907000000
H    -6.904000000     3.351000000     3.951000000
C    -5.743000000     3.450000000     2.056000000
O    -4.679000000     4.193000000     2.663000000
C    -3.586000000     3.565000000     3.141000000
C    -2.629000000     4.444000000     3.650000000
H    -2.701000000     5.522000000     3.534000000
C    -1.463000000     3.980000000     4.246000000
O    -0.625000000     4.983000000     4.702000000
C     0.714000000     4.778000000     4.849000000
C     1.583000000     4.953000000     3.769000000
H     1.150000000     5.205000000     2.804000000
C     1.231000000     4.603000000     6.112000000
H     0.548000000     4.695000000     6.952000000
C     2.616000000     4.507000000     6.204000000
H     3.095000000     4.350000000     7.167000000
C     3.462000000     4.513000000     5.128000000
H     4.511000000     4.281000000     5.293000000
C     2.923000000     4.788000000     3.877000000
O     3.700000000     4.767000000     2.726000000
C     4.225000000     3.562000000     2.165000000
C     5.232000000     3.695000000     1.218000000
H     5.709000000     4.630000000     0.937000000
C     5.812000000     2.550000000     0.617000000
O     6.815000000     2.664000000    -0.347000000
C     6.719000000     2.156000000    -1.650000000
C     5.624000000     2.231000000    -2.464000000
H     4.785000000     2.883000000    -2.236000000
C     7.844000000     1.462000000    -2.192000000
H     8.728000000     1.362000000    -1.568000000
C     7.734000000     0.772000000    -3.390000000
H     8.560000000     0.159000000    -3.741000000
C     6.669000000     0.942000000    -4.180000000
H     6.663000000     0.548000000    -5.193000000
C     5.610000000     1.641000000    -3.706000000
O     4.525000000     1.774000000    -4.579000000
C     3.298000000     0.969000000    -4.732000000
C     2.371000000     1.207000000    -5.738000000
H     2.350000000     2.122000000    -6.326000000
C     1.321000000     0.290000000    -5.941000000
O     0.423000000     0.665000000    -6.847000000
C    -0.924000000     0.347000000    -6.830000000
C    -1.539000000    -0.482000000    -7.751000000
H    -0.869000000    -0.810000000    -8.542000000
C    -2.859000000    -0.837000000    -7.686000000
H    -3.424000000    -1.280000000    -8.502000000
C    -3.597000000    -0.242000000    -6.692000000
H    -4.665000000    -0.432000000    -6.630000000
C    -3.075000000     0.767000000    -5.874000000
C    -1.728000000     1.006000000    -5.914000000
H    -1.262000000     1.815000000    -5.358000000
C     0.083000000     1.643000000    -2.308000000
H     0.807000000     1.776000000    -3.108000000
C     0.263000000     0.595000000    -1.419000000
H     1.198000000     0.042000000    -1.463000000
C    -0.635000000     0.273000000    -0.417000000
H    -0.415000000    -0.443000000     0.318000000
C    -1.789000000     1.035000000    -0.193000000
H    -2.414000000     0.730000000     0.642000000
C    -2.031000000     2.042000000    -1.150000000
H    -3.029000000     2.471000000    -1.129000000
C    -1.111000000     2.364000000    -2.223000000
C    -1.476000000     3.427000000    -3.254000000
O    -2.466000000     4.043000000    -3.131000000
O    -0.595000000     3.773000000    -4.042000000
O    -4.669000000     5.762000000    -3.096000000
H    -4.113000000     4.992000000    -2.973000000
H    -4.150000000     6.347000000    -3.648000000
O    -0.447000000     6.831000000    -4.672000000
H     0.497000000     6.677000000    -4.713000000
H    -0.829000000     5.956000000    -4.601000000
O    -3.009000000     4.473000000    -5.858000000
H    -2.846000000     4.408000000    -4.918000000
H    -3.105000000     3.566000000    -6.149000000
O    -2.800000000     8.002000000    -3.876000000
H    -1.912000000     7.770000000    -4.145000000
H    -2.703000000     8.324000000    -2.980000000
O    -7.328000000     5.036000000    -3.051000000
H    -7.934000000     5.385000000    -2.398000000
H    -6.476000000     5.395000000    -2.802000000
O    -4.131000000     7.236000000    -6.330000000
H    -3.966000000     6.295000000    -6.276000000
H    -3.615000000     7.611000000    -5.616000000
O    -1.361000000     6.242000000    -0.310000000
H    -2.054000000     5.985000000    -0.917000000
H    -1.824000000     6.500000000     0.487000000
O    -0.611000000     3.396000000    -8.284000000
H    -0.794000000     2.498000000    -8.008000000
H    -1.204000000     3.545000000    -9.021000000
O    -4.212000000     6.847000000    -0.469000000
H    -4.707000000     6.696000000    -1.274000000
H    -3.786000000     7.694000000    -0.605000000
O     0.357000000     8.406000000    -0.217000000
H    -0.244000000     7.687000000    -0.410000000
H     1.093000000     7.989000000     0.232000000
O     1.590000000     4.932000000    -3.110000000
H     1.414000000     4.843000000    -2.173000000
H     0.875000000     4.457000000    -3.533000000
O     1.587000000     9.080000000    -4.776000000
H     1.523000000     9.218000000    -3.831000000
H     0.932000000     8.408000000    -4.964000000
O     0.929000000     4.744000000    -6.519000000
H     0.220000000     4.451000000    -7.092000000
H     0.804000000     4.246000000    -5.711000000
O    -1.689000000     6.032000000    -7.893000000
H    -2.555000000     5.857000000    -7.526000000
H    -1.330000000     5.165000000    -8.082000000
O     0.690000000     4.421000000    -0.487000000
H     0.402000000     3.745000000     0.127000000
H    -0.059000000     5.013000000    -0.559000000
O     2.945000000     5.964000000    -5.019000000
H     2.437000000     5.773000000    -5.808000000
H     2.596000000     5.364000000    -4.359000000
O     2.681000000     6.676000000     0.414000000
H     2.109000000     5.919000000     0.290000000
H     3.141000000     6.497000000     1.234000000
O    -0.555000000     8.552000000    -6.990000000
H    -1.136000000     9.108000000    -6.471000000
H    -0.948000000     7.681000000    -6.940000000
O    -5.422000000     3.299000000    -8.018000000
H    -4.990000000     4.098000000    -7.716000000
H    -5.850000000     2.948000000    -7.237000000
