215
-1463.33638
C    -1.725000000     3.298000000     3.930000000
H    -0.961000000     3.250000000     4.701000000
C    -2.356000000     2.140000000     3.319000000
C    -3.307000000     2.301000000     2.313000000
H    -3.637000000     1.431000000     1.750000000
C    -1.982000000     0.673000000     3.691000000
O    -1.170000000     0.648000000     4.885000000
H    -1.381000000     0.258000000     2.868000000
O    -3.113000000    -0.285000000     3.789000000
C    -3.003000000    -1.506000000     3.180000000
C    -3.678000000    -1.737000000     2.003000000
H    -4.416000000    -1.013000000     1.668000000
C    -3.455000000    -2.927000000     1.212000000
O    -4.056000000    -3.087000000    -0.080000000
C    -2.550000000    -3.890000000     1.703000000
C    -2.210000000    -5.138000000     0.906000000
H    -1.958000000    -5.945000000     1.597000000
C    -1.156000000    -4.850000000    -0.047000000
C     0.222000000    -4.974000000     0.192000000
H     0.486000000    -5.496000000     1.108000000
H    -3.135000000    -5.402000000     0.388000000
C    -1.769000000    -3.570000000     2.880000000
H    -1.012000000    -4.299000000     3.158000000
C    -1.995000000    -2.416000000     3.610000000
C    -1.169000000    -2.313000000     4.907000000
H    -0.912000000    -3.326000000     5.224000000
H    -1.825000000    -1.915000000     5.684000000
C     0.066000000    -1.486000000     4.678000000
C     1.283000000    -2.104000000     4.469000000
H     1.291000000    -3.187000000     4.372000000
C     0.009000000    -0.067000000     4.738000000
C     1.163000000     0.663000000     4.577000000
H     1.041000000     1.739000000     4.670000000
C     2.350000000     0.057000000     4.237000000
O     3.293000000     0.940000000     3.811000000
C     3.493000000     1.044000000     2.379000000
C     3.681000000     2.453000000     1.859000000
C     4.157000000     2.737000000     0.616000000
H     4.429000000     1.886000000    -0.003000000
C     3.329000000     3.570000000     2.703000000
H     3.124000000     3.322000000     3.741000000
O     4.538000000     0.123000000     1.960000000
H     2.563000000     0.695000000     1.907000000
C     2.452000000    -1.351000000     4.245000000
C     3.760000000    -2.003000000     3.794000000
H     3.730000000    -2.994000000     4.253000000
H     4.662000000    -1.474000000     4.106000000
C     3.896000000    -2.183000000     2.296000000
C     3.400000000    -3.366000000     1.688000000
H     2.994000000    -4.153000000     2.319000000
C     4.302000000    -1.107000000     1.468000000
C     4.209000000    -1.211000000     0.094000000
H     4.522000000    -0.354000000    -0.497000000
C     3.749000000    -2.412000000    -0.458000000
O     3.675000000    -2.438000000    -1.823000000
C     2.324000000    -2.234000000    -2.402000000
C     2.363000000    -1.398000000    -3.670000000
C     3.193000000    -0.286000000    -3.732000000
H     3.931000000    -0.094000000    -2.958000000
C     1.359000000    -1.574000000    -4.710000000
H     0.643000000    -2.391000000    -4.752000000
O     1.851000000    -3.610000000    -2.720000000
H     1.638000000    -1.695000000    -1.731000000
C     3.328000000    -3.475000000     0.326000000
C     2.648000000    -4.740000000    -0.293000000
H     2.725000000    -5.564000000     0.419000000
H     3.178000000    -5.064000000    -1.192000000
C     1.190000000    -4.472000000    -0.653000000
C     0.823000000    -3.992000000    -1.884000000
C    -0.483000000    -3.928000000    -2.280000000
H    -0.722000000    -3.509000000    -3.254000000
C    -1.445000000    -4.287000000    -1.329000000
O    -2.795000000    -3.993000000    -1.702000000
C    -3.229000000    -2.736000000    -1.198000000
H    -2.326000000    -2.166000000    -0.933000000
C    -3.952000000    -1.888000000    -2.224000000
C    -4.790000000    -0.838000000    -1.872000000
H    -4.996000000    -0.682000000    -0.816000000
C    -3.701000000    -2.153000000    -3.587000000
H    -3.035000000    -2.931000000    -3.952000000
C    -4.379000000    -1.416000000    -4.585000000
O    -4.127000000    -1.608000000    -5.908000000
C    -5.307000000    -0.455000000    -4.211000000
H    -5.884000000     0.088000000    -4.956000000
C    -5.526000000    -0.172000000    -2.848000000
O    -6.455000000     0.795000000    -2.595000000
C    -6.523000000     1.329000000    -1.333000000
C    -5.608000000     2.258000000    -0.936000000
H    -4.931000000     2.639000000    -1.697000000
C    -7.471000000     0.897000000    -0.484000000
H    -8.191000000     0.166000000    -0.842000000
C    -7.438000000     1.337000000     0.828000000
H    -8.124000000     1.028000000     1.613000000
C    -6.417000000     2.174000000     1.239000000
H    -6.415000000     2.496000000     2.277000000
C    -5.463000000     2.682000000     0.374000000
O    -4.507000000     3.671000000     0.704000000
C    -3.625000000     3.559000000     1.790000000
C    -3.105000000     4.688000000     2.457000000
H    -3.414000000     5.680000000     2.140000000
C    -2.162000000     4.584000000     3.509000000
O    -1.707000000     5.736000000     4.182000000
C    -0.316000000     5.925000000     4.458000000
C     0.636000000     5.812000000     3.499000000
H     0.331000000     5.613000000     2.475000000
C    -0.014000000     6.325000000     5.790000000
H    -0.734000000     6.560000000     6.570000000
C     1.321000000     6.494000000     6.150000000
H     1.683000000     6.537000000     7.174000000
C     2.312000000     6.340000000     5.183000000
H     3.342000000     6.571000000     5.442000000
C     2.020000000     5.981000000     3.852000000
O     3.019000000     5.989000000     2.931000000
C     3.567000000     4.878000000     2.297000000
C     3.971000000     5.071000000     0.979000000
H     3.965000000     6.070000000     0.551000000
C     4.301000000     3.979000000     0.123000000
O     4.486000000     4.212000000    -1.221000000
C     5.141000000     3.353000000    -2.123000000
C     4.391000000     2.843000000    -3.138000000
H     3.316000000     3.008000000    -3.147000000
C     6.475000000     2.974000000    -1.917000000
H     6.877000000     3.459000000    -1.031000000
C     7.040000000     2.064000000    -2.777000000
H     7.992000000     1.613000000    -2.508000000
C     6.269000000     1.564000000    -3.867000000
H     6.655000000     0.820000000    -4.559000000
C     4.988000000     1.998000000    -4.100000000
O     4.162000000     1.500000000    -5.099000000
C     3.130000000     0.599000000    -4.769000000
C     2.168000000     0.355000000    -5.744000000
H     2.311000000     0.917000000    -6.664000000
C     1.267000000    -0.698000000    -5.761000000
O     0.610000000    -1.082000000    -6.900000000
C    -0.563000000    -1.820000000    -7.018000000
C    -0.571000000    -2.989000000    -7.713000000
H     0.357000000    -3.242000000    -8.218000000
C    -1.741000000    -3.698000000    -7.873000000
H    -1.905000000    -4.535000000    -8.548000000
C    -2.880000000    -3.305000000    -7.198000000
H    -3.851000000    -3.764000000    -7.368000000
C    -2.922000000    -2.086000000    -6.421000000
C    -1.761000000    -1.389000000    -6.392000000
H    -1.767000000    -0.478000000    -5.801000000
C     0.404000000     1.700000000    -1.584000000
H     0.896000000     2.447000000    -2.201000000
C     1.229000000     0.877000000    -0.757000000
H     2.314000000     0.920000000    -0.806000000
C     0.669000000    -0.044000000     0.080000000
H     1.216000000    -0.626000000     0.769000000
C    -0.728000000    -0.150000000     0.181000000
H    -1.235000000    -0.793000000     0.897000000
C    -1.544000000     0.593000000    -0.674000000
H    -2.622000000     0.460000000    -0.633000000
C    -0.987000000     1.548000000    -1.557000000
C    -1.873000000     2.378000000    -2.442000000
O    -2.937000000     1.990000000    -2.964000000
O    -1.749000000     3.572000000    -2.435000000
O    -2.314000000     1.336000000    -7.974000000
H    -2.634000000     1.520000000    -7.091000000
H    -1.605000000     1.965000000    -8.107000000
O    -0.021000000     3.667000000     0.957000000
H    -0.788000000     3.397000000     1.462000000
H     0.230000000     2.884000000     0.466000000
O    -0.802000000     4.200000000    -5.125000000
H    -0.155000000     4.692000000    -4.619000000
H    -1.279000000     3.689000000    -4.471000000
O    -4.226000000     7.972000000     0.257000000
H    -3.708000000     8.157000000     1.040000000
H    -3.577000000     7.833000000    -0.432000000
O    -3.042000000     2.371000000    -5.537000000
H    -3.370000000     3.264000000    -5.642000000
H    -3.051000000     2.223000000    -4.592000000
O    -1.849000000     8.259000000    -1.489000000
H    -1.299000000     8.253000000    -2.272000000
H    -1.574000000     7.487000000    -0.996000000
O     0.111000000     3.785000000    -7.647000000
H    -0.250000000     3.838000000    -6.762000000
H     0.924000000     4.289000000    -7.605000000
O    -5.037000000     0.865000000    -8.592000000
H    -4.095000000     0.816000000    -8.430000000
H    -5.403000000     1.208000000    -7.777000000
O    -2.680000000     7.074000000    -4.377000000
H    -2.849000000     6.400000000    -3.719000000
H    -3.315000000     7.763000000    -4.184000000
O    -1.317000000     7.655000000    -6.859000000
H    -1.703000000     7.243000000    -6.087000000
H    -0.742000000     8.335000000    -6.507000000
O    -6.084000000     2.154000000    -6.103000000
H    -6.647000000     2.763000000    -5.625000000
H    -5.359000000     1.977000000    -5.503000000
O    -5.961000000     5.759000000    -1.130000000
H    -5.015000000     5.907000000    -1.165000000
H    -6.198000000     5.942000000    -0.221000000
O    -3.599000000     5.206000000    -6.300000000
H    -2.930000000     5.203000000    -6.984000000
H    -3.319000000     5.892000000    -5.694000000
O    -6.524000000     5.773000000    -4.653000000
H    -7.247000000     5.242000000    -4.319000000
H    -5.900000000     5.137000000    -5.001000000
O     0.784000000     4.959000000    -2.887000000
H    -0.086000000     4.689000000    -2.592000000
H     1.144000000     5.451000000    -2.149000000
O     2.463000000     5.071000000    -5.339000000
H     2.017000000     4.817000000    -4.531000000
H     3.204000000     5.603000000    -5.047000000
O    -1.605000000     5.705000000    -0.416000000
H    -1.792000000     5.272000000    -1.249000000
H    -1.046000000     5.087000000     0.055000000
O    -3.712000000     5.320000000    -2.676000000
H    -3.280000000     4.468000000    -2.620000000
H    -4.602000000     5.159000000    -2.361000000
O     1.479000000     6.138000000    -0.545000000
H     1.366000000     5.516000000     0.173000000
H     2.172000000     6.726000000    -0.245000000
