215
-1455.78953
C    -2.032000000     3.354000000     4.643000000
H    -1.101000000     3.170000000     5.172000000
C    -2.722000000     2.316000000     4.040000000
C    -3.853000000     2.561000000     3.233000000
H    -4.299000000     1.708000000     2.726000000
C    -2.030000000     0.946000000     4.002000000
O    -1.105000000     0.714000000     5.078000000
H    -1.654000000     0.677000000     3.004000000
O    -3.100000000    -0.094000000     4.225000000
C    -2.973000000    -1.366000000     3.573000000
C    -3.576000000    -1.464000000     2.318000000
H    -4.186000000    -0.625000000     1.995000000
C    -3.459000000    -2.555000000     1.467000000
O    -3.986000000    -2.555000000     0.132000000
C    -2.653000000    -3.658000000     1.888000000
C    -2.377000000    -4.825000000     1.030000000
H    -2.048000000    -5.643000000     1.675000000
C    -1.261000000    -4.646000000    -0.001000000
C     0.047000000    -5.028000000     0.320000000
H     0.320000000    -5.420000000     1.296000000
H    -3.317000000    -5.107000000     0.550000000
C    -1.933000000    -3.535000000     3.108000000
H    -1.234000000    -4.313000000     3.405000000
C    -2.070000000    -2.379000000     3.906000000
C    -1.224000000    -2.188000000     5.210000000
H    -0.922000000    -3.155000000     5.617000000
H    -1.835000000    -1.766000000     6.011000000
C    -0.005000000    -1.374000000     4.757000000
C     1.147000000    -2.073000000     4.325000000
H     1.171000000    -3.160000000     4.348000000
C     0.006000000     0.019000000     4.747000000
C     1.142000000     0.691000000     4.316000000
H     1.108000000     1.777000000     4.287000000
C     2.238000000     0.004000000     3.896000000
O     3.321000000     0.691000000     3.508000000
C     3.473000000     0.753000000     2.052000000
C     3.583000000     2.104000000     1.401000000
C     3.889000000     2.311000000     0.059000000
H     4.147000000     1.449000000    -0.551000000
C     3.069000000     3.220000000     2.089000000
H     2.706000000     3.052000000     3.100000000
O     4.529000000    -0.146000000     1.549000000
H     2.507000000     0.420000000     1.643000000
C     2.264000000    -1.382000000     3.851000000
C     3.555000000    -2.073000000     3.534000000
H     3.714000000    -2.969000000     4.138000000
H     4.381000000    -1.409000000     3.797000000
C     3.667000000    -2.420000000     2.060000000
C     3.142000000    -3.592000000     1.537000000
H     2.438000000    -4.158000000     2.142000000
C     4.237000000    -1.460000000     1.159000000
C     4.341000000    -1.756000000    -0.172000000
H     4.586000000    -1.035000000    -0.947000000
C     3.840000000    -2.945000000    -0.643000000
O     3.771000000    -3.064000000    -2.033000000
C     2.533000000    -2.770000000    -2.679000000
C     2.604000000    -2.050000000    -4.040000000
C     3.700000000    -1.232000000    -4.243000000
H     4.371000000    -0.977000000    -3.427000000
C     1.685000000    -2.290000000    -5.052000000
H     0.859000000    -2.981000000    -4.903000000
O     1.787000000    -4.021000000    -2.906000000
H     1.992000000    -2.060000000    -2.036000000
C     3.235000000    -3.876000000     0.183000000
C     2.492000000    -5.135000000    -0.324000000
H     2.407000000    -5.919000000     0.431000000
H     3.154000000    -5.572000000    -1.075000000
C     1.087000000    -4.777000000    -0.676000000
C     0.805000000    -4.266000000    -1.947000000
C    -0.484000000    -3.973000000    -2.283000000
H    -0.703000000    -3.627000000    -3.289000000
C    -1.502000000    -4.150000000    -1.298000000
O    -2.782000000    -3.625000000    -1.607000000
C    -3.106000000    -2.364000000    -1.071000000
H    -2.205000000    -1.852000000    -0.703000000
C    -3.680000000    -1.323000000    -1.974000000
C    -4.398000000    -0.238000000    -1.465000000
H    -4.744000000    -0.227000000    -0.434000000
C    -3.240000000    -1.317000000    -3.326000000
H    -2.542000000    -2.047000000    -3.729000000
C    -3.470000000    -0.234000000    -4.228000000
O    -3.224000000    -0.286000000    -5.573000000
C    -4.118000000     0.840000000    -3.737000000
H    -4.276000000     1.763000000    -4.289000000
C    -4.682000000     0.769000000    -2.414000000
O    -5.233000000     1.975000000    -2.021000000
C    -5.739000000     2.202000000    -0.747000000
C    -5.288000000     3.165000000     0.151000000
H    -4.356000000     3.668000000    -0.093000000
C    -6.779000000     1.359000000    -0.345000000
H    -7.142000000     0.670000000    -1.104000000
C    -7.460000000     1.527000000     0.862000000
H    -8.112000000     0.741000000     1.233000000
C    -6.991000000     2.524000000     1.768000000
H    -7.499000000     2.651000000     2.720000000
C    -5.904000000     3.353000000     1.328000000
O    -5.396000000     4.229000000     2.327000000
C    -4.270000000     3.888000000     3.069000000
C    -3.588000000     4.977000000     3.701000000
H    -3.869000000     5.994000000     3.443000000
C    -2.432000000     4.656000000     4.452000000
O    -1.679000000     5.714000000     4.796000000
C    -0.332000000     5.775000000     4.668000000
C     0.154000000     5.529000000     3.374000000
H    -0.488000000     5.470000000     2.499000000
C     0.504000000     6.186000000     5.663000000
H     0.017000000     6.422000000     6.606000000
C     1.882000000     6.273000000     5.448000000
H     2.596000000     6.614000000     6.193000000
C     2.388000000     5.922000000     4.182000000
H     3.460000000     6.002000000     4.024000000
C     1.505000000     5.613000000     3.152000000
O     1.905000000     5.386000000     1.866000000
C     2.796000000     4.423000000     1.415000000
C     3.198000000     4.642000000     0.090000000
H     2.908000000     5.519000000    -0.483000000
C     3.789000000     3.601000000    -0.545000000
O     3.923000000     3.782000000    -1.900000000
C     4.713000000     2.892000000    -2.652000000
C     4.154000000     2.118000000    -3.690000000
H     3.108000000     2.181000000    -3.978000000
C     6.039000000     2.812000000    -2.295000000
H     6.533000000     3.460000000    -1.575000000
C     6.874000000     2.086000000    -3.102000000
H     7.942000000     2.116000000    -2.899000000
C     6.347000000     1.327000000    -4.171000000
H     7.034000000     0.802000000    -4.829000000
C     5.010000000     1.308000000    -4.494000000
O     4.543000000     0.633000000    -5.545000000
C     3.714000000    -0.410000000    -5.365000000
C     2.841000000    -0.687000000    -6.334000000
H     2.814000000    -0.139000000    -7.272000000
C     1.835000000    -1.606000000    -6.256000000
O     0.991000000    -1.800000000    -7.277000000
C    -0.331000000    -2.014000000    -7.131000000
C    -0.905000000    -3.218000000    -7.481000000
H    -0.340000000    -4.027000000    -7.936000000
C    -2.285000000    -3.358000000    -7.364000000
H    -2.762000000    -4.318000000    -7.544000000
C    -3.023000000    -2.400000000    -6.721000000
H    -4.046000000    -2.598000000    -6.410000000
C    -2.474000000    -1.215000000    -6.259000000
C    -1.126000000    -1.063000000    -6.511000000
H    -0.668000000    -0.142000000    -6.161000000
C     0.710000000     0.519000000    -1.736000000
H     1.588000000     0.588000000    -2.373000000
C     0.797000000    -0.249000000    -0.545000000
H     1.635000000    -0.881000000    -0.263000000
C    -0.242000000    -0.301000000     0.314000000
H    -0.254000000    -0.850000000     1.245000000
C    -1.385000000     0.449000000    -0.042000000
H    -2.251000000     0.314000000     0.602000000
C    -1.442000000     1.231000000    -1.226000000
H    -2.329000000     1.831000000    -1.413000000
C    -0.361000000     1.367000000    -2.057000000
C    -0.350000000     2.302000000    -3.337000000
O    -1.333000000     2.952000000    -3.683000000
O     0.666000000     2.445000000    -3.968000000
O     3.782000000     3.655000000    -6.697000000
H     3.624000000     4.023000000    -5.827000000
H     2.927000000     3.334000000    -6.981000000
O    -3.424000000     5.609000000    -6.697000000
H    -4.108000000     5.851000000    -7.322000000
H    -3.298000000     6.394000000    -6.165000000
O    -2.366000000     5.378000000    -0.048000000
H    -2.487000000     4.851000000    -0.837000000
H    -1.581000000     5.897000000    -0.224000000
O     3.664000000     5.694000000    -4.353000000
H     4.435000000     5.500000000    -3.820000000
H     3.966000000     6.352000000    -4.980000000
O    -5.463000000     1.583000000    -7.066000000
H    -6.167000000     1.886000000    -6.493000000
H    -4.860000000     1.124000000    -6.482000000
O     2.981000000     1.701000000    -8.936000000
H     2.162000000     1.438000000    -9.356000000
H     2.712000000     2.064000000    -8.092000000
O     1.096000000     6.889000000    -6.551000000
H     0.988000000     6.489000000    -5.688000000
H     0.714000000     6.256000000    -7.159000000
O    -2.072000000     3.140000000    -6.320000000
H    -1.859000000     3.003000000    -5.397000000
H    -2.523000000     3.984000000    -6.339000000
O     1.659000000     9.051000000    -1.898000000
H     1.042000000     8.466000000    -2.337000000
H     2.501000000     8.868000000    -2.316000000
O    -5.828000000     6.205000000    -2.775000000
H    -4.973000000     5.780000000    -2.704000000
H    -5.810000000     6.892000000    -2.109000000
O    -0.050000000     6.339000000    -1.133000000
H    -0.248000000     7.080000000    -1.706000000
H     0.414000000     5.719000000    -1.694000000
O    -3.068000000     1.583000000    -8.264000000
H    -3.987000000     1.686000000    -8.015000000
H    -2.578000000     1.940000000    -7.523000000
O    -3.247000000     4.677000000    -2.862000000
H    -2.567000000     4.014000000    -2.984000000
H    -3.919000000     4.451000000    -3.504000000
O    -0.987000000     8.185000000    -3.027000000
H    -1.753000000     8.739000000    -3.177000000
H    -1.113000000     7.439000000    -3.614000000
O    -4.697000000     3.934000000    -4.982000000
H    -5.532000000     3.723000000    -5.399000000
H    -4.183000000     4.353000000    -5.672000000
O    -0.497000000     5.580000000    -4.439000000
H     0.224000000     5.626000000    -3.812000000
H    -0.948000000     4.762000000    -4.228000000
O    -0.225000000     5.346000000    -8.196000000
H    -0.473000000     5.571000000    -9.092000000
H    -1.055000000     5.163000000    -7.756000000
O     1.493000000     4.854000000    -2.893000000
H     1.402000000     3.994000000    -3.302000000
H     2.223000000     5.264000000    -3.356000000
O     1.343000000     2.832000000    -6.708000000
H     0.500000000     3.120000000    -7.058000000
H     1.136000000     2.480000000    -5.842000000
