215
-1459.06272
C    -0.941000000     3.852000000     3.548000000
H     0.007000000     3.511000000     3.955000000
C    -1.848000000     2.875000000     3.390000000
C    -3.013000000     3.071000000     2.637000000
H    -3.677000000     2.238000000     2.421000000
C    -1.372000000     1.433000000     3.740000000
O    -0.334000000     1.428000000     4.692000000
H    -0.994000000     1.063000000     2.775000000
O    -2.467000000     0.608000000     4.192000000
C    -2.479000000    -0.713000000     3.802000000
C    -3.359000000    -1.020000000     2.810000000
H    -3.994000000    -0.239000000     2.398000000
C    -3.397000000    -2.302000000     2.270000000
O    -4.218000000    -2.570000000     1.282000000
C    -2.373000000    -3.190000000     2.665000000
C    -2.307000000    -4.552000000     2.050000000
H    -1.839000000    -5.287000000     2.708000000
C    -1.405000000    -4.504000000     0.812000000
C    -0.092000000    -4.984000000     0.872000000
H     0.332000000    -5.348000000     1.804000000
H    -3.297000000    -4.922000000     1.777000000
C    -1.498000000    -2.819000000     3.670000000
H    -0.718000000    -3.476000000     4.045000000
C    -1.627000000    -1.666000000     4.385000000
C    -0.647000000    -1.327000000     5.516000000
H    -0.484000000    -2.187000000     6.169000000
H    -1.144000000    -0.635000000     6.198000000
C     0.607000000    -0.795000000     4.835000000
C     1.649000000    -1.666000000     4.507000000
H     1.555000000    -2.736000000     4.670000000
C     0.707000000     0.576000000     4.534000000
C     1.835000000     1.066000000     3.882000000
H     1.848000000     2.110000000     3.581000000
C     2.848000000     0.211000000     3.547000000
O     3.999000000     0.712000000     2.935000000
C     4.033000000     0.695000000     1.490000000
C     4.397000000     1.962000000     0.729000000
C     4.846000000     1.992000000    -0.573000000
H     4.992000000     0.993000000    -0.976000000
C     3.981000000     3.185000000     1.318000000
H     3.631000000     3.270000000     2.344000000
O     4.782000000    -0.408000000     1.011000000
H     3.001000000     0.633000000     1.117000000
C     2.743000000    -1.197000000     3.781000000
C     3.922000000    -2.141000000     3.354000000
H     3.868000000    -3.093000000     3.887000000
H     4.874000000    -1.645000000     3.553000000
C     3.725000000    -2.480000000     1.819000000
C     3.092000000    -3.699000000     1.456000000
H     2.815000000    -4.390000000     2.248000000
C     4.136000000    -1.595000000     0.795000000
C     3.970000000    -1.958000000    -0.535000000
H     4.193000000    -1.278000000    -1.353000000
C     3.368000000    -3.142000000    -0.891000000
O     3.016000000    -3.275000000    -2.272000000
C     1.639000000    -3.017000000    -2.645000000
C     1.638000000    -2.393000000    -4.009000000
C     2.642000000    -1.442000000    -4.311000000
H     3.382000000    -1.284000000    -3.530000000
C     0.552000000    -2.640000000    -4.858000000
H    -0.256000000    -3.302000000    -4.557000000
O     0.876000000    -4.225000000    -2.633000000
H     1.261000000    -2.289000000    -1.912000000
C     2.938000000    -3.992000000     0.090000000
C     2.189000000    -5.226000000    -0.207000000
H     2.355000000    -6.052000000     0.488000000
H     2.506000000    -5.708000000    -1.135000000
C     0.701000000    -4.887000000    -0.260000000
C     0.098000000    -4.431000000    -1.456000000
C    -1.192000000    -4.076000000    -1.569000000
H    -1.630000000    -3.843000000    -2.536000000
C    -2.028000000    -4.087000000    -0.402000000
O    -3.320000000    -3.779000000    -0.506000000
C    -3.667000000    -2.480000000    -0.015000000
H    -2.736000000    -1.897000000    -0.064000000
C    -4.596000000    -1.666000000    -0.945000000
C    -5.568000000    -0.814000000    -0.434000000
H    -5.816000000    -0.873000000     0.622000000
C    -4.293000000    -1.601000000    -2.297000000
H    -3.443000000    -2.172000000    -2.660000000
C    -4.814000000    -0.551000000    -3.042000000
O    -4.247000000    -0.300000000    -4.287000000
C    -5.776000000     0.284000000    -2.570000000
H    -6.165000000     1.110000000    -3.159000000
C    -6.068000000     0.219000000    -1.202000000
O    -7.034000000     1.072000000    -0.668000000
C    -6.857000000     2.136000000     0.180000000
C    -5.630000000     2.825000000     0.268000000
H    -4.905000000     2.562000000    -0.499000000
C    -7.885000000     2.472000000     1.089000000
H    -8.853000000     1.979000000     1.040000000
C    -7.699000000     3.568000000     1.925000000
H    -8.528000000     3.824000000     2.580000000
C    -6.457000000     4.220000000     1.985000000
H    -6.262000000     5.026000000     2.688000000
C    -5.372000000     3.814000000     1.236000000
O    -4.227000000     4.513000000     1.154000000
C    -3.164000000     4.282000000     2.012000000
C    -2.284000000     5.376000000     2.332000000
H    -2.392000000     6.348000000     1.855000000
C    -1.157000000     5.127000000     3.109000000
O    -0.191000000     6.066000000     3.250000000
C     1.167000000     5.917000000     3.418000000
C     2.000000000     6.044000000     2.315000000
H     1.518000000     6.115000000     1.343000000
C     1.731000000     5.673000000     4.667000000
H     1.076000000     5.626000000     5.534000000
C     3.128000000     5.262000000     4.796000000
H     3.546000000     4.889000000     5.727000000
C     3.891000000     5.322000000     3.612000000
H     4.937000000     5.037000000     3.687000000
C     3.307000000     5.720000000     2.410000000
O     4.062000000     5.653000000     1.203000000
C     4.310000000     4.385000000     0.702000000
C     4.788000000     4.356000000    -0.616000000
H     4.815000000     5.349000000    -1.059000000
C     5.113000000     3.159000000    -1.237000000
O     5.400000000     3.167000000    -2.608000000
C     5.591000000     2.097000000    -3.511000000
C     4.458000000     1.620000000    -4.188000000
H     3.530000000     2.145000000    -3.975000000
C     6.833000000     1.470000000    -3.755000000
H     7.730000000     1.801000000    -3.238000000
C     6.932000000     0.546000000    -4.783000000
H     7.890000000     0.091000000    -5.024000000
C     5.784000000    -0.010000000    -5.394000000
H     5.788000000    -0.838000000    -6.098000000
C     4.570000000     0.575000000    -5.129000000
O     3.486000000     0.267000000    -5.903000000
C     2.536000000    -0.725000000    -5.518000000
C     1.485000000    -0.982000000    -6.365000000
H     1.457000000    -0.343000000    -7.244000000
C     0.515000000    -1.908000000    -6.035000000
O    -0.639000000    -1.958000000    -6.861000000
C    -1.902000000    -2.156000000    -6.382000000
C    -2.758000000    -3.196000000    -6.929000000
H    -2.399000000    -3.887000000    -7.687000000
C    -4.074000000    -3.222000000    -6.599000000
H    -4.773000000    -3.841000000    -7.156000000
C    -4.624000000    -2.245000000    -5.710000000
H    -5.682000000    -2.104000000    -5.506000000
C    -3.737000000    -1.321000000    -5.123000000
C    -2.401000000    -1.263000000    -5.476000000
H    -1.864000000    -0.351000000    -5.226000000
C     0.908000000     0.978000000    -1.567000000
H     1.778000000     1.103000000    -2.207000000
C     0.813000000     0.193000000    -0.397000000
H     1.695000000    -0.258000000     0.050000000
C    -0.433000000     0.002000000     0.181000000
H    -0.687000000    -0.610000000     1.073000000
C    -1.515000000     0.661000000    -0.318000000
H    -2.480000000     0.427000000     0.122000000
C    -1.488000000     1.352000000    -1.518000000
H    -2.422000000     1.787000000    -1.864000000
C    -0.286000000     1.473000000    -2.165000000
C    -0.196000000     2.161000000    -3.549000000
O    -1.146000000     2.129000000    -4.307000000
O     0.819000000     2.720000000    -3.847000000
O    -3.366000000     4.544000000    -7.285000000
H    -4.287000000     4.387000000    -7.081000000
H    -3.193000000     3.995000000    -8.051000000
O     0.924000000     4.862000000    -1.262000000
H     1.875000000     4.971000000    -1.276000000
H     0.699000000     4.603000000    -2.155000000
O     2.537000000     4.382000000    -8.383000000
H     1.846000000     4.904000000    -8.792000000
H     2.125000000     4.008000000    -7.604000000
O    -1.079000000     2.020000000    -6.901000000
H    -1.059000000     2.200000000    -5.961000000
H    -1.581000000     2.746000000    -7.273000000
O    -0.199000000     5.909000000    -6.800000000
H    -0.238000000     6.713000000    -7.318000000
H    -0.744000000     5.287000000    -7.282000000
O     4.521000000     5.670000000    -6.060000000
H     4.233000000     5.294000000    -5.228000000
H     3.723000000     6.022000000    -6.453000000
O    -5.743000000     4.045000000    -2.898000000
H    -4.921000000     3.742000000    -3.283000000
H    -5.487000000     4.436000000    -2.063000000
O    -3.400000000     3.184000000    -4.234000000
H    -2.514000000     2.835000000    -4.147000000
H    -3.587000000     3.133000000    -5.172000000
O    -4.251000000     1.534000000    -6.350000000
H    -3.985000000     1.432000000    -5.437000000
H    -5.036000000     0.992000000    -6.433000000
O    -0.487000000     5.165000000    -4.135000000
H    -0.309000000     5.406000000    -5.044000000
H    -0.162000000     4.267000000    -4.058000000
O    -4.707000000     5.839000000    -1.208000000
H    -4.982000000     6.485000000    -0.557000000
H    -3.895000000     5.475000000    -0.856000000
O     2.420000000     4.871000000    -3.658000000
H     2.097000000     3.971000000    -3.620000000
H     2.163000000     5.181000000    -4.527000000
O     1.427000000     2.867000000    -6.389000000
H     0.605000000     2.480000000    -6.690000000
H     1.399000000     2.776000000    -5.436000000
O    -0.946000000     6.814000000    -0.513000000
H    -0.346000000     6.101000000    -0.735000000
H    -1.358000000     7.048000000    -1.344000000
O     2.073000000     6.919000000    -5.924000000
H     1.668000000     7.705000000    -5.557000000
H     1.346000000     6.436000000    -6.316000000
O    -1.792000000     7.125000000    -3.013000000
H    -2.689000000     6.899000000    -3.260000000
H    -1.295000000     6.319000000    -3.153000000
O     3.388000000     1.322000000    -8.541000000
H     3.749000000     1.023000000    -7.707000000
H     2.942000000     2.142000000    -8.329000000
O    -2.039000000    -0.317000000    -9.010000000
H    -2.018000000     0.486000000    -8.491000000
H    -2.962000000    -0.571000000    -9.020000000
O     3.079000000     7.224000000    -2.624000000
H     2.688000000     6.437000000    -3.005000000
H     4.019000000     7.045000000    -2.617000000
