215
-1445.55705
C    -1.841000000     3.467000000     4.094000000
H    -0.872000000     3.466000000     4.588000000
C    -2.500000000     2.285000000     3.703000000
C    -3.733000000     2.360000000     3.044000000
H    -4.155000000     1.434000000     2.663000000
C    -1.868000000     0.951000000     3.863000000
O    -0.909000000     0.954000000     4.964000000
H    -1.234000000     0.786000000     2.979000000
O    -2.864000000    -0.111000000     4.024000000
C    -2.595000000    -1.340000000     3.428000000
C    -3.419000000    -1.632000000     2.351000000
H    -4.065000000    -0.859000000     1.942000000
C    -3.217000000    -2.845000000     1.730000000
O    -3.851000000    -3.009000000     0.455000000
C    -2.226000000    -3.791000000     2.103000000
C    -1.814000000    -5.020000000     1.318000000
H    -1.410000000    -5.678000000     2.089000000
C    -0.837000000    -4.684000000     0.274000000
C     0.501000000    -5.010000000     0.391000000
H     0.844000000    -5.373000000     1.357000000
H    -2.686000000    -5.556000000     0.938000000
C    -1.500000000    -3.453000000     3.251000000
H    -0.706000000    -4.110000000     3.597000000
C    -1.705000000    -2.252000000     3.996000000
C    -0.966000000    -1.914000000     5.281000000
H    -0.749000000    -2.889000000     5.721000000
H    -1.531000000    -1.267000000     5.955000000
C     0.260000000    -1.142000000     4.874000000
C     1.441000000    -1.810000000     4.486000000
H     1.566000000    -2.887000000     4.550000000
C     0.194000000     0.212000000     4.760000000
C     1.300000000     0.962000000     4.402000000
H     1.170000000     2.036000000     4.292000000
C     2.446000000     0.300000000     3.922000000
O     3.294000000     1.126000000     3.286000000
C     3.495000000     1.047000000     1.898000000
C     3.574000000     2.423000000     1.226000000
C     3.991000000     2.464000000    -0.144000000
H     4.368000000     1.594000000    -0.676000000
C     3.128000000     3.589000000     1.915000000
H     2.717000000     3.574000000     2.921000000
O     4.569000000     0.134000000     1.573000000
H     2.536000000     0.612000000     1.579000000
C     2.515000000    -1.140000000     4.025000000
C     3.789000000    -1.866000000     3.551000000
H     4.030000000    -2.727000000     4.176000000
H     4.659000000    -1.271000000     3.837000000
C     3.752000000    -2.084000000     2.032000000
C     3.370000000    -3.306000000     1.538000000
H     3.101000000    -4.139000000     2.183000000
C     4.167000000    -1.077000000     1.143000000
C     4.169000000    -1.302000000    -0.238000000
H     4.449000000    -0.546000000    -0.967000000
C     3.735000000    -2.508000000    -0.685000000
O     3.660000000    -2.551000000    -2.005000000
C     2.375000000    -2.297000000    -2.655000000
C     2.513000000    -1.635000000    -3.963000000
C     3.539000000    -0.792000000    -4.315000000
H     4.350000000    -0.597000000    -3.617000000
C     1.408000000    -1.777000000    -4.857000000
H     0.530000000    -2.318000000    -4.512000000
O     1.810000000    -3.609000000    -2.751000000
H     1.744000000    -1.706000000    -1.975000000
C     3.370000000    -3.536000000     0.147000000
C     2.856000000    -4.908000000    -0.369000000
H     3.064000000    -5.578000000     0.467000000
H     3.300000000    -5.213000000    -1.319000000
C     1.362000000    -4.776000000    -0.593000000
C     0.954000000    -4.104000000    -1.784000000
C    -0.410000000    -3.801000000    -1.902000000
H    -0.711000000    -3.295000000    -2.815000000
C    -1.260000000    -4.157000000    -0.900000000
O    -2.489000000    -3.857000000    -1.232000000
C    -3.038000000    -2.654000000    -0.679000000
H    -2.260000000    -1.996000000    -0.262000000
C    -3.839000000    -1.922000000    -1.759000000
C    -4.658000000    -0.828000000    -1.321000000
H    -4.594000000    -0.489000000    -0.291000000
C    -3.862000000    -2.250000000    -3.132000000
H    -3.430000000    -3.190000000    -3.467000000
C    -4.469000000    -1.365000000    -4.039000000
O    -4.352000000    -1.546000000    -5.414000000
C    -5.213000000    -0.251000000    -3.633000000
H    -5.575000000     0.472000000    -4.359000000
C    -5.165000000     0.083000000    -2.269000000
O    -5.760000000     1.302000000    -1.864000000
C    -6.277000000     1.574000000    -0.632000000
C    -5.634000000     2.580000000     0.164000000
H    -4.870000000     3.237000000    -0.244000000
C    -7.293000000     0.844000000    -0.112000000
H    -7.691000000     0.032000000    -0.715000000
C    -7.750000000     1.107000000     1.167000000
H    -8.547000000     0.504000000     1.595000000
C    -7.192000000     2.134000000     1.886000000
H    -7.709000000     2.532000000     2.756000000
C    -6.088000000     2.878000000     1.419000000
O    -5.516000000     3.780000000     2.240000000
C    -4.228000000     3.621000000     2.717000000
C    -3.610000000     4.749000000     3.182000000
H    -3.944000000     5.749000000     2.920000000
C    -2.426000000     4.700000000     3.872000000
O    -1.826000000     5.815000000     4.381000000
C    -0.471000000     5.953000000     4.177000000
C     0.187000000     5.796000000     2.885000000
H    -0.353000000     5.664000000     1.951000000
C     0.385000000     6.105000000     5.283000000
H    -0.082000000     6.066000000     6.264000000
C     1.757000000     6.145000000     5.251000000
H     2.311000000     6.391000000     6.153000000
C     2.396000000     6.091000000     4.012000000
H     3.475000000     6.115000000     3.884000000
C     1.612000000     5.948000000     2.832000000
O     2.269000000     5.886000000     1.652000000
C     2.985000000     4.781000000     1.128000000
C     3.321000000     4.788000000    -0.195000000
H     3.120000000     5.726000000    -0.705000000
C     3.871000000     3.690000000    -0.805000000
O     4.394000000     3.967000000    -2.074000000
C     5.069000000     3.059000000    -2.821000000
C     4.417000000     2.367000000    -3.859000000
H     3.354000000     2.539000000    -4.004000000
C     6.440000000     2.783000000    -2.452000000
H     7.019000000     3.321000000    -1.706000000
C     7.094000000     1.970000000    -3.400000000
H     8.174000000     1.930000000    -3.289000000
C     6.472000000     1.425000000    -4.463000000
H     7.014000000     0.780000000    -5.150000000
C     5.113000000     1.528000000    -4.744000000
O     4.493000000     0.882000000    -5.835000000
C     3.532000000    -0.060000000    -5.529000000
C     2.390000000    -0.084000000    -6.318000000
H     2.453000000     0.500000000    -7.232000000
C     1.315000000    -0.966000000    -5.993000000
O     0.190000000    -0.969000000    -6.840000000
C    -0.941000000    -1.768000000    -6.689000000
C    -0.970000000    -3.030000000    -7.198000000
H    -0.169000000    -3.277000000    -7.891000000
C    -2.038000000    -3.900000000    -7.010000000
H    -1.991000000    -4.857000000    -7.524000000
C    -3.178000000    -3.425000000    -6.404000000
H    -4.119000000    -3.968000000    -6.443000000
C    -3.169000000    -2.146000000    -5.890000000
C    -2.055000000    -1.311000000    -6.035000000
H    -2.078000000    -0.271000000    -5.719000000
C     0.770000000     1.172000000    -1.819000000
H     1.616000000     1.014000000    -2.483000000
C     0.703000000     0.309000000    -0.692000000
H     1.585000000    -0.285000000    -0.467000000
C    -0.396000000     0.315000000     0.206000000
H    -0.547000000    -0.403000000     0.981000000
C    -1.456000000     1.232000000    -0.074000000
H    -2.317000000     1.134000000     0.582000000
C    -1.419000000     1.976000000    -1.257000000
H    -2.292000000     2.583000000    -1.482000000
C    -0.297000000     1.985000000    -2.071000000
C    -0.342000000     2.787000000    -3.349000000
O    -1.325000000     3.500000000    -3.620000000
O     0.706000000     3.079000000    -3.914000000
O     2.795000000     4.314000000    -5.843000000
H     2.193000000     4.080000000    -5.137000000
H     2.562000000     5.214000000    -6.069000000
O    -3.635000000     6.444000000    -0.046000000
H    -3.572000000     6.434000000    -1.001000000
H    -3.113000000     7.201000000     0.220000000
O    -3.482000000     7.545000000    -4.015000000
H    -4.356000000     7.588000000    -4.403000000
H    -3.460000000     6.699000000    -3.568000000
O     2.070000000     8.139000000    -7.091000000
H     1.803000000     8.997000000    -6.763000000
H     1.340000000     7.560000000    -6.869000000
O     3.216000000     8.055000000    -0.140000000
H     2.467000000     7.503000000     0.087000000
H     3.899000000     7.797000000     0.479000000
O    -1.629000000     1.247000000    -8.400000000
H    -1.656000000     0.525000000    -7.772000000
H    -0.929000000     1.817000000    -8.081000000
O     0.233000000     6.092000000    -6.849000000
H    -0.041000000     5.979000000    -5.939000000
H    -0.288000000     5.454000000    -7.337000000
O    -2.658000000     2.398000000    -5.626000000
H    -2.337000000     2.921000000    -4.891000000
H    -3.388000000     2.906000000    -5.981000000
O     2.023000000     3.191000000    -8.742000000
H     2.937000000     3.239000000    -8.462000000
H     1.551000000     2.881000000    -7.968000000
O     0.178000000     9.447000000    -1.110000000
H    -0.736000000     9.164000000    -1.078000000
H     0.567000000     8.922000000    -1.810000000
O    -4.787000000     1.268000000    -8.818000000
H    -5.508000000     1.626000000    -8.299000000
H    -3.997000000     1.580000000    -8.378000000
O    -3.519000000     4.978000000    -3.496000000
H    -2.773000000     4.400000000    -3.334000000
H    -4.283000000     4.405000000    -3.433000000
O    -2.591000000     9.001000000    -1.335000000
H    -3.219000000     9.546000000    -0.862000000
H    -2.993000000     8.863000000    -2.193000000
O    -4.839000000     3.734000000    -6.631000000
H    -5.620000000     3.482000000    -7.125000000
H    -4.659000000     4.632000000    -6.910000000
O    -0.683000000     6.064000000    -4.093000000
H    -1.500000000     6.530000000    -4.268000000
H    -0.960000000     5.210000000    -3.762000000
O     1.265000000     8.088000000    -3.307000000
H     0.644000000     7.419000000    -3.595000000
H     2.056000000     7.599000000    -3.081000000
O    -0.004000000     2.589000000    -6.550000000
H    -0.954000000     2.632000000    -6.441000000
H     0.345000000     2.773000000    -5.678000000
O     4.506000000     3.298000000    -7.796000000
H     4.153000000     3.873000000    -7.117000000
H     4.616000000     2.453000000    -7.360000000
O     3.879000000     6.549000000    -3.565000000
H     4.093000000     5.800000000    -3.008000000
H     4.508000000     6.499000000    -4.285000000
