215
-1467.73774
C    -1.062000000     3.584000000     3.998000000
H    -0.231000000     3.404000000     4.676000000
C    -1.779000000     2.513000000     3.490000000
C    -2.832000000     2.734000000     2.646000000
H    -3.457000000     1.907000000     2.319000000
C    -1.428000000     1.046000000     3.817000000
O    -0.444000000     0.909000000     4.880000000
H    -0.867000000     0.706000000     2.934000000
O    -2.508000000     0.117000000     4.062000000
C    -2.547000000    -1.078000000     3.476000000
C    -3.460000000    -1.236000000     2.458000000
H    -4.073000000    -0.397000000     2.139000000
C    -3.470000000    -2.512000000     1.716000000
O    -4.301000000    -2.658000000     0.612000000
C    -2.644000000    -3.559000000     2.145000000
C    -2.574000000    -4.871000000     1.398000000
H    -2.191000000    -5.672000000     2.033000000
C    -1.694000000    -4.812000000     0.138000000
C    -0.360000000    -5.177000000     0.292000000
H     0.049000000    -5.454000000     1.261000000
H    -3.614000000    -5.074000000     1.136000000
C    -1.748000000    -3.276000000     3.201000000
H    -1.018000000    -4.036000000     3.466000000
C    -1.631000000    -2.071000000     3.818000000
C    -0.740000000    -1.872000000     5.067000000
H    -0.572000000    -2.868000000     5.482000000
H    -1.291000000    -1.339000000     5.845000000
C     0.597000000    -1.261000000     4.814000000
C     1.694000000    -2.023000000     4.476000000
H     1.615000000    -3.100000000     4.602000000
C     0.654000000     0.117000000     4.652000000
C     1.851000000     0.741000000     4.214000000
H     1.859000000     1.828000000     4.209000000
C     2.878000000    -0.034000000     3.731000000
O     3.949000000     0.679000000     3.213000000
C     4.010000000     0.648000000     1.784000000
C     4.306000000     2.002000000     1.157000000
C     4.874000000     2.068000000    -0.123000000
H     5.250000000     1.150000000    -0.567000000
C     3.937000000     3.255000000     1.764000000
H     3.524000000     3.195000000     2.767000000
O     4.949000000    -0.363000000     1.306000000
H     3.001000000     0.402000000     1.421000000
C     2.880000000    -1.430000000     3.919000000
C     4.061000000    -2.267000000     3.378000000
H     4.026000000    -3.231000000     3.889000000
H     5.072000000    -1.884000000     3.527000000
C     3.846000000    -2.506000000     1.887000000
C     3.154000000    -3.641000000     1.475000000
H     2.888000000    -4.397000000     2.209000000
C     4.377000000    -1.616000000     0.965000000
C     4.067000000    -1.852000000    -0.344000000
H     4.415000000    -1.077000000    -1.022000000
C     3.300000000    -2.953000000    -0.783000000
O     3.003000000    -2.930000000    -2.123000000
C     1.637000000    -2.684000000    -2.526000000
C     1.604000000    -1.803000000    -3.754000000
C     2.528000000    -0.792000000    -3.910000000
H     3.418000000    -0.739000000    -3.288000000
C     0.613000000    -1.986000000    -4.680000000
H    -0.220000000    -2.678000000    -4.584000000
O     1.057000000    -3.993000000    -2.797000000
H     1.008000000    -2.297000000    -1.711000000
C     2.792000000    -3.878000000     0.143000000
C     2.035000000    -5.121000000    -0.394000000
H     2.104000000    -5.945000000     0.318000000
H     2.578000000    -5.435000000    -1.288000000
C     0.559000000    -4.916000000    -0.673000000
C     0.179000000    -4.364000000    -1.880000000
C    -1.221000000    -4.203000000    -2.133000000
H    -1.547000000    -3.676000000    -3.026000000
C    -2.151000000    -4.341000000    -1.112000000
O    -3.426000000    -3.842000000    -1.304000000
C    -3.653000000    -2.523000000    -0.705000000
H    -2.705000000    -1.982000000    -0.574000000
C    -4.399000000    -1.516000000    -1.590000000
C    -5.317000000    -0.669000000    -0.904000000
H    -5.536000000    -0.692000000     0.161000000
C    -4.027000000    -1.276000000    -2.893000000
H    -3.269000000    -1.940000000    -3.300000000
C    -4.783000000    -0.410000000    -3.662000000
O    -4.587000000    -0.261000000    -5.016000000
C    -5.757000000     0.403000000    -3.022000000
H    -6.365000000     1.127000000    -3.558000000
C    -5.980000000     0.286000000    -1.641000000
O    -6.932000000     1.101000000    -1.035000000
C    -6.746000000     1.929000000     0.062000000
C    -5.565000000     2.674000000     0.084000000
H    -4.842000000     2.421000000    -0.686000000
C    -7.691000000     2.118000000     1.027000000
H    -8.665000000     1.640000000     0.955000000
C    -7.430000000     2.923000000     2.093000000
H    -8.026000000     2.923000000     3.001000000
C    -6.213000000     3.640000000     2.150000000
H    -5.985000000     4.101000000     3.108000000
C    -5.237000000     3.524000000     1.129000000
O    -4.074000000     4.241000000     1.196000000
C    -3.005000000     3.977000000     2.060000000
C    -2.152000000     5.024000000     2.410000000
H    -2.255000000     5.969000000     1.884000000
C    -1.265000000     4.884000000     3.503000000
O    -0.573000000     5.981000000     3.939000000
C     0.798000000     5.953000000     3.973000000
C     1.501000000     5.694000000     2.771000000
H     0.986000000     5.459000000     1.843000000
C     1.409000000     6.325000000     5.144000000
H     0.866000000     6.380000000     6.084000000
C     2.758000000     6.365000000     5.156000000
H     3.355000000     6.550000000     6.045000000
C     3.531000000     6.003000000     4.047000000
H     4.616000000     5.968000000     4.098000000
C     2.908000000     5.700000000     2.830000000
O     3.675000000     5.589000000     1.653000000
C     4.122000000     4.469000000     1.092000000
C     4.582000000     4.524000000    -0.224000000
H     4.617000000     5.472000000    -0.755000000
C     4.949000000     3.309000000    -0.777000000
O     5.675000000     3.346000000    -1.961000000
C     5.698000000     2.363000000    -2.885000000
C     4.648000000     2.207000000    -3.765000000
H     3.782000000     2.860000000    -3.705000000
C     6.852000000     1.562000000    -3.016000000
H     7.679000000     1.822000000    -2.361000000
C     6.925000000     0.617000000    -4.008000000
H     7.844000000     0.078000000    -4.227000000
C     5.750000000     0.293000000    -4.735000000
H     5.704000000    -0.450000000    -5.527000000
C     4.690000000     1.204000000    -4.730000000
O     3.525000000     0.911000000    -5.407000000
C     2.524000000    -0.026000000    -5.139000000
C     1.544000000    -0.268000000    -6.133000000
H     1.610000000     0.127000000    -7.144000000
C     0.568000000    -1.227000000    -5.897000000
O    -0.357000000    -1.591000000    -6.894000000
C    -1.656000000    -1.917000000    -6.560000000
C    -2.270000000    -2.972000000    -7.225000000
H    -1.630000000    -3.688000000    -7.735000000
C    -3.630000000    -3.219000000    -7.095000000
H    -4.056000000    -4.110000000    -7.549000000
C    -4.492000000    -2.231000000    -6.475000000
H    -5.562000000    -2.410000000    -6.551000000
C    -3.825000000    -1.176000000    -5.733000000
C    -2.401000000    -1.033000000    -5.758000000
H    -1.858000000    -0.280000000    -5.191000000
C     0.789000000     0.877000000    -1.157000000
H     1.813000000     0.988000000    -1.506000000
C     0.482000000    -0.070000000    -0.174000000
H     1.224000000    -0.824000000     0.077000000
C    -0.702000000    -0.028000000     0.547000000
H    -0.859000000    -0.717000000     1.383000000
C    -1.666000000     0.804000000     0.092000000
H    -2.617000000     0.846000000     0.616000000
C    -1.392000000     1.698000000    -0.958000000
H    -2.175000000     2.419000000    -1.177000000
C    -0.160000000     1.743000000    -1.651000000
C     0.131000000     2.821000000    -2.683000000
O    -0.769000000     3.508000000    -3.138000000
O     1.316000000     2.989000000    -3.013000000
O    -3.596000000     4.370000000    -7.343000000
H    -3.160000000     5.072000000    -7.825000000
H    -4.457000000     4.727000000    -7.124000000
O     1.675000000     4.761000000    -0.862000000
H     2.471000000     4.421000000    -0.454000000
H     1.437000000     4.100000000    -1.512000000
O    -0.035000000     9.425000000    -3.947000000
H    -0.360000000    10.230000000    -3.544000000
H    -0.524000000     8.726000000    -3.513000000
O     2.805000000     3.737000000    -8.999000000
H     2.128000000     4.402000000    -9.124000000
H     3.040000000     3.804000000    -8.074000000
O     0.927000000     2.811000000    -5.604000000
H     0.278000000     2.109000000    -5.565000000
H     1.169000000     2.966000000    -4.691000000
O     0.644000000     7.246000000    -6.609000000
H     0.792000000     6.755000000    -7.417000000
H     0.138000000     6.650000000    -6.056000000
O     4.439000000     6.952000000    -4.081000000
H     3.871000000     6.255000000    -3.752000000
H     3.933000000     7.754000000    -3.953000000
O    -5.412000000     4.759000000    -3.734000000
H    -5.089000000     4.969000000    -2.857000000
H    -4.651000000     4.397000000    -4.188000000
O    -3.103000000     3.344000000    -4.270000000
H    -2.305000000     3.572000000    -3.794000000
H    -2.811000000     2.741000000    -4.953000000
O    -0.549000000     5.200000000    -5.146000000
H    -0.159000000     4.454000000    -5.602000000
H    -0.711000000     4.880000000    -4.259000000
O    -4.784000000     7.915000000    -2.657000000
H    -4.016000000     7.894000000    -3.228000000
H    -4.778000000     7.064000000    -2.218000000
O     2.632000000     5.218000000    -3.471000000
H     2.273000000     4.331000000    -3.490000000
H     1.972000000     5.733000000    -3.008000000
O     3.356000000     4.252000000    -6.303000000
H     2.781000000     3.522000000    -6.072000000
H     3.094000000     4.959000000    -5.713000000
O    -2.060000000     6.397000000    -1.069000000
H    -1.256000000     6.867000000    -1.290000000
H    -1.989000000     5.566000000    -1.538000000
O     2.232000000     8.742000000    -5.090000000
H     1.448000000     9.104000000    -4.677000000
H     1.899000000     8.094000000    -5.711000000
O    -2.687000000     7.056000000    -4.502000000
H    -3.450000000     7.147000000    -5.073000000
H    -2.115000000     6.442000000    -4.962000000
O    -2.321000000     1.975000000    -6.566000000
H    -3.141000000     1.489000000    -6.483000000
H    -2.561000000     2.771000000    -7.039000000
O     0.636000000     7.456000000    -0.963000000
H     1.273000000     8.004000000    -0.505000000
H     1.031000000     6.585000000    -0.971000000
O    -4.009000000     7.579000000     0.789000000
H    -3.227000000     7.236000000     0.355000000
H    -4.281000000     8.317000000     0.244000000
