215
-1441.02950
C    -2.415000000     1.705000000     4.594000000
H    -1.358000000     1.666000000     4.845000000
C    -3.108000000     0.548000000     4.308000000
C    -4.486000000     0.613000000     4.042000000
H    -4.999000000    -0.304000000     3.763000000
C    -2.301000000    -0.676000000     3.981000000
O    -1.249000000    -0.837000000     4.980000000
H    -1.890000000    -0.623000000     2.962000000
O    -3.119000000    -1.836000000     4.001000000
C    -2.865000000    -2.792000000     3.020000000
C    -3.510000000    -2.477000000     1.776000000
H    -4.130000000    -1.590000000     1.669000000
C    -3.076000000    -3.200000000     0.661000000
O    -3.634000000    -2.926000000    -0.570000000
C    -2.127000000    -4.186000000     0.800000000
C    -1.678000000    -5.117000000    -0.377000000
H    -1.311000000    -6.107000000    -0.100000000
C    -0.683000000    -4.480000000    -1.292000000
C     0.667000000    -4.822000000    -1.198000000
H     0.974000000    -5.567000000    -0.469000000
H    -2.488000000    -5.416000000    -1.046000000
C    -1.396000000    -4.366000000     1.968000000
H    -0.557000000    -5.054000000     2.029000000
C    -1.824000000    -3.709000000     3.130000000
C    -0.816000000    -3.705000000     4.358000000
H    -0.287000000    -4.643000000     4.534000000
H    -1.361000000    -3.500000000     5.282000000
C     0.226000000    -2.617000000     4.190000000
C     1.433000000    -2.993000000     3.668000000
H     1.610000000    -3.993000000     3.280000000
C    -0.036000000    -1.260000000     4.527000000
C     0.943000000    -0.323000000     4.329000000
H     0.799000000     0.702000000     4.663000000
C     2.209000000    -0.696000000     3.863000000
O     3.090000000     0.300000000     3.406000000
C     3.237000000     0.667000000     1.973000000
C     3.170000000     2.145000000     1.677000000
C     4.046000000     2.715000000     0.744000000
H     4.759000000     2.111000000     0.189000000
C     2.426000000     3.028000000     2.492000000
H     1.851000000     2.601000000     3.310000000
O     4.460000000     0.071000000     1.374000000
H     2.369000000     0.308000000     1.402000000
C     2.408000000    -2.034000000     3.451000000
C     3.689000000    -2.531000000     2.825000000
H     3.698000000    -3.590000000     3.093000000
H     4.529000000    -2.050000000     3.329000000
C     3.740000000    -2.346000000     1.380000000
C     3.482000000    -3.427000000     0.577000000
H     3.187000000    -4.397000000     0.967000000
C     4.232000000    -1.131000000     0.743000000
C     4.416000000    -1.073000000    -0.661000000
H     4.776000000    -0.129000000    -1.062000000
C     4.150000000    -2.198000000    -1.464000000
O     3.998000000    -1.856000000    -2.712000000
C     2.720000000    -1.486000000    -3.324000000
C     2.834000000    -0.302000000    -4.354000000
C     3.779000000     0.721000000    -4.038000000
H     4.501000000     0.635000000    -3.230000000
C     1.959000000    -0.200000000    -5.428000000
H     1.229000000    -0.995000000    -5.565000000
O     2.077000000    -2.655000000    -3.848000000
H     2.092000000    -1.029000000    -2.545000000
C     3.586000000    -3.303000000    -0.834000000
C     3.176000000    -4.510000000    -1.689000000
H     3.338000000    -5.459000000    -1.172000000
H     3.722000000    -4.722000000    -2.611000000
C     1.643000000    -4.259000000    -2.016000000
C     1.240000000    -3.343000000    -2.969000000
C    -0.149000000    -3.063000000    -3.239000000
H    -0.485000000    -2.345000000    -3.983000000
C    -1.043000000    -3.656000000    -2.412000000
O    -2.354000000    -3.236000000    -2.541000000
C    -2.789000000    -2.261000000    -1.554000000
H    -1.955000000    -1.771000000    -1.030000000
C    -3.570000000    -1.144000000    -2.171000000
C    -4.506000000    -0.491000000    -1.442000000
H    -4.788000000    -0.893000000    -0.472000000
C    -3.076000000    -0.587000000    -3.324000000
H    -2.267000000    -1.004000000    -3.918000000
C    -3.589000000     0.614000000    -3.859000000
O    -3.183000000     1.217000000    -5.030000000
C    -4.632000000     1.208000000    -3.158000000
H    -5.000000000     2.162000000    -3.527000000
C    -5.042000000     0.719000000    -1.942000000
O    -5.956000000     1.388000000    -1.210000000
C    -6.600000000     1.015000000     0.027000000
C    -6.227000000     1.672000000     1.210000000
H    -5.393000000     2.364000000     1.122000000
C    -7.626000000     0.067000000    -0.030000000
H    -7.844000000    -0.302000000    -1.029000000
C    -8.273000000    -0.252000000     1.138000000
H    -9.131000000    -0.912000000     1.035000000
C    -7.853000000     0.311000000     2.343000000
H    -8.320000000     0.038000000     3.286000000
C    -6.840000000     1.256000000     2.347000000
O    -6.461000000     1.789000000     3.603000000
C    -5.162000000     1.815000000     3.940000000
C    -4.495000000     2.974000000     4.342000000
H    -5.054000000     3.906000000     4.315000000
C    -3.172000000     2.883000000     4.685000000
O    -2.494000000     4.082000000     4.915000000
C    -1.147000000     4.340000000     5.115000000
C    -0.320000000     4.820000000     4.099000000
H    -0.829000000     4.865000000     3.140000000
C    -0.617000000     3.920000000     6.309000000
H    -1.295000000     3.447000000     7.015000000
C     0.718000000     4.278000000     6.619000000
H     1.158000000     4.100000000     7.597000000
C     1.525000000     4.793000000     5.655000000
H     2.582000000     4.835000000     5.906000000
C     1.038000000     5.033000000     4.384000000
O     1.840000000     5.291000000     3.266000000
C     2.377000000     4.422000000     2.292000000
C     3.149000000     4.948000000     1.243000000
H     3.148000000     6.025000000     1.100000000
C     4.040000000     4.114000000     0.572000000
O     4.951000000     4.670000000    -0.316000000
C     5.591000000     4.001000000    -1.363000000
C     4.825000000     3.570000000    -2.436000000
H     3.744000000     3.668000000    -2.375000000
C     6.990000000     3.952000000    -1.465000000
H     7.527000000     4.347000000    -0.607000000
C     7.621000000     3.439000000    -2.562000000
H     8.707000000     3.457000000    -2.557000000
C     6.887000000     2.911000000    -3.624000000
H     7.372000000     2.644000000    -4.560000000
C     5.489000000     2.998000000    -3.556000000
O     4.808000000     2.784000000    -4.763000000
C     3.844000000     1.845000000    -4.849000000
C     2.993000000     1.929000000    -5.958000000
H     3.086000000     2.740000000    -6.676000000
C     2.014000000     0.944000000    -6.200000000
O     1.091000000     1.181000000    -7.154000000
C    -0.208000000     0.605000000    -7.009000000
C    -0.623000000    -0.498000000    -7.738000000
H     0.024000000    -0.971000000    -8.473000000
C    -1.844000000    -1.070000000    -7.500000000
H    -1.994000000    -1.997000000    -8.047000000
C    -2.698000000    -0.535000000    -6.570000000
H    -3.669000000    -0.993000000    -6.401000000
C    -2.326000000     0.615000000    -5.909000000
C    -1.086000000     1.195000000    -6.114000000
H    -0.879000000     2.124000000    -5.588000000
C     0.053000000     1.507000000    -1.307000000
H     0.893000000     1.718000000    -1.965000000
C     0.073000000     0.320000000    -0.518000000
H     0.925000000    -0.355000000    -0.515000000
C    -1.023000000     0.051000000     0.319000000
H    -0.933000000    -0.831000000     0.986000000
C    -2.112000000     0.934000000     0.299000000
H    -2.950000000     0.597000000     0.904000000
C    -2.153000000     2.070000000    -0.551000000
H    -3.032000000     2.709000000    -0.507000000
C    -1.044000000     2.392000000    -1.315000000
C    -0.966000000     3.605000000    -2.078000000
O    -1.821000000     4.471000000    -2.004000000
O    -0.177000000     3.745000000    -2.994000000
O    -1.058000000     3.736000000    -8.581000000
H    -1.817000000     3.917000000    -8.026000000
H    -1.134000000     2.806000000    -8.795000000
O     1.103000000     7.755000000    -5.919000000
H     0.818000000     7.866000000    -6.826000000
H     0.349000000     7.364000000    -5.477000000
O     0.458000000     6.363000000     0.538000000
H     0.890000000     5.874000000     1.238000000
H     0.807000000     7.251000000     0.615000000
O    -5.887000000     2.099000000    -6.538000000
H    -5.499000000     2.587000000    -5.811000000
H    -6.699000000     2.566000000    -6.733000000
O    -2.696000000     5.924000000    -0.004000000
H    -1.810000000     6.200000000     0.229000000
H    -2.570000000     5.265000000    -0.686000000
O    -3.747000000     6.381000000     2.857000000
H    -3.309000000     6.424000000     3.707000000
H    -3.050000000     6.159000000     2.240000000
O    -4.670000000     7.715000000     0.257000000
H    -4.612000000     8.004000000    -0.654000000
H    -4.071000000     6.970000000     0.310000000
O    -6.327000000     4.497000000    -4.926000000
H    -7.052000000     4.094000000    -4.447000000
H    -6.198000000     5.343000000    -4.497000000
O    -3.228000000     4.214000000    -6.750000000
H    -2.878000000     4.545000000    -5.923000000
H    -3.974000000     3.672000000    -6.494000000
O    -2.926000000     5.210000000    -4.115000000
H    -2.445000000     4.860000000    -3.365000000
H    -3.687000000     5.645000000    -3.730000000
O    -5.112000000     7.304000000    -2.806000000
H    -4.339000000     7.847000000    -2.959000000
H    -5.827000000     7.782000000    -3.225000000
O    -0.222000000     5.855000000    -4.391000000
H    -1.165000000     5.956000000    -4.526000000
H    -0.141000000     5.081000000    -3.833000000
O    -1.997000000     7.761000000    -2.839000000
H    -1.251000000     8.338000000    -2.677000000
H    -1.720000000     6.910000000    -2.499000000
O    -2.829000000     6.787000000    -7.189000000
H    -3.474000000     6.860000000    -7.893000000
H    -2.890000000     5.876000000    -6.903000000
O     2.205000000     9.062000000    -3.993000000
H     1.916000000     8.418000000    -4.639000000
H     2.427000000     8.542000000    -3.220000000
O     2.693000000     5.600000000    -4.803000000
H     1.980000000     5.626000000    -5.441000000
H     2.284000000     5.277000000    -4.000000000
O     1.756000000     5.182000000    -1.912000000
H     1.138000000     5.785000000    -1.499000000
H     1.204000000     4.518000000    -2.324000000
O    -5.481000000     4.934000000    -1.269000000
H    -5.223000000     4.411000000    -2.028000000
H    -5.338000000     5.840000000    -1.543000000
O     3.875000000     7.476000000    -2.263000000
H     4.707000000     7.019000000    -2.386000000
H     3.209000000     6.803000000    -2.403000000
