215
-1459.03889
C    -1.942000000     3.117000000     3.430000000
H    -0.919000000     3.013000000     3.780000000
C    -2.799000000     1.995000000     3.332000000
C    -4.090000000     2.231000000     2.793000000
H    -4.737000000     1.374000000     2.625000000
C    -2.259000000     0.561000000     3.612000000
O    -1.322000000     0.513000000     4.746000000
H    -1.724000000     0.274000000     2.694000000
O    -3.294000000    -0.410000000     3.654000000
C    -3.182000000    -1.617000000     2.914000000
C    -3.804000000    -1.709000000     1.647000000
H    -4.440000000    -0.895000000     1.307000000
C    -3.642000000    -2.871000000     0.887000000
O    -4.106000000    -2.821000000    -0.437000000
C    -2.774000000    -3.899000000     1.331000000
C    -2.415000000    -5.038000000     0.429000000
H    -2.114000000    -5.875000000     1.063000000
C    -1.157000000    -4.775000000    -0.448000000
C     0.179000000    -5.051000000    -0.117000000
H     0.397000000    -5.384000000     0.895000000
H    -3.296000000    -5.385000000    -0.116000000
C    -2.093000000    -3.687000000     2.537000000
H    -1.354000000    -4.335000000     3.003000000
C    -2.267000000    -2.556000000     3.321000000
C    -1.526000000    -2.354000000     4.658000000
H    -1.205000000    -3.289000000     5.121000000
H    -2.099000000    -1.760000000     5.373000000
C    -0.287000000    -1.565000000     4.512000000
C     0.876000000    -2.250000000     4.225000000
H     0.890000000    -3.333000000     4.323000000
C    -0.188000000    -0.169000000     4.618000000
C     0.936000000     0.472000000     4.345000000
H     0.881000000     1.554000000     4.433000000
C     2.025000000    -0.230000000     3.939000000
O     3.153000000     0.532000000     3.624000000
C     3.465000000     0.644000000     2.293000000
C     3.825000000     2.132000000     2.038000000
C     4.508000000     2.442000000     0.854000000
H     4.732000000     1.568000000     0.247000000
C     3.430000000     3.164000000     2.883000000
H     2.832000000     2.913000000     3.756000000
O     4.587000000    -0.208000000     2.026000000
H     2.626000000     0.357000000     1.643000000
C     2.070000000    -1.598000000     3.934000000
C     3.340000000    -2.360000000     3.663000000
H     3.229000000    -3.380000000     4.037000000
H     4.217000000    -1.928000000     4.150000000
C     3.578000000    -2.428000000     2.223000000
C     3.085000000    -3.507000000     1.476000000
H     2.477000000    -4.178000000     2.078000000
C     4.226000000    -1.449000000     1.530000000
C     4.404000000    -1.565000000     0.143000000
H     4.896000000    -0.785000000    -0.432000000
C     3.868000000    -2.696000000    -0.522000000
O     3.776000000    -2.627000000    -1.950000000
C     2.493000000    -2.343000000    -2.472000000
C     2.691000000    -1.284000000    -3.626000000
C     3.780000000    -0.458000000    -3.712000000
H     4.597000000    -0.630000000    -3.016000000
C     1.687000000    -1.245000000    -4.644000000
H     0.893000000    -1.977000000    -4.516000000
O     1.951000000    -3.545000000    -3.010000000
H     1.836000000    -1.976000000    -1.670000000
C     3.298000000    -3.762000000     0.157000000
C     2.725000000    -4.880000000    -0.584000000
H     2.807000000    -5.800000000    -0.002000000
H     3.255000000    -5.165000000    -1.495000000
C     1.246000000    -4.739000000    -0.988000000
C     0.987000000    -4.049000000    -2.213000000
C    -0.329000000    -3.781000000    -2.524000000
H    -0.515000000    -3.050000000    -3.307000000
C    -1.325000000    -4.170000000    -1.687000000
O    -2.615000000    -3.795000000    -2.051000000
C    -3.088000000    -2.540000000    -1.393000000
H    -2.211000000    -2.064000000    -0.930000000
C    -3.738000000    -1.522000000    -2.364000000
C    -4.539000000    -0.470000000    -1.824000000
H    -4.536000000    -0.377000000    -0.741000000
C    -3.569000000    -1.584000000    -3.721000000
H    -3.020000000    -2.460000000    -4.059000000
C    -4.118000000    -0.619000000    -4.605000000
O    -3.894000000    -0.662000000    -5.962000000
C    -4.840000000     0.400000000    -4.088000000
H    -5.317000000     1.083000000    -4.786000000
C    -5.054000000     0.515000000    -2.735000000
O    -5.820000000     1.651000000    -2.320000000
C    -6.419000000     1.947000000    -1.127000000
C    -5.731000000     2.616000000    -0.120000000
H    -4.702000000     2.877000000    -0.354000000
C    -7.824000000     1.692000000    -1.039000000
H    -8.352000000     1.181000000    -1.840000000
C    -8.480000000     2.023000000     0.137000000
H    -9.531000000     1.755000000     0.210000000
C    -7.786000000     2.583000000     1.131000000
H    -8.261000000     2.687000000     2.103000000
C    -6.424000000     2.987000000     1.028000000
O    -5.787000000     3.689000000     1.995000000
C    -4.503000000     3.499000000     2.385000000
C    -3.666000000     4.581000000     2.637000000
H    -4.045000000     5.574000000     2.411000000
C    -2.353000000     4.405000000     3.045000000
O    -1.583000000     5.505000000     3.103000000
C    -0.297000000     5.569000000     3.798000000
C     0.985000000     5.650000000     3.118000000
H     1.058000000     5.594000000     2.035000000
C    -0.302000000     5.491000000     5.199000000
H    -1.262000000     5.301000000     5.672000000
C     0.856000000     5.578000000     5.965000000
H     0.747000000     5.683000000     7.042000000
C     2.125000000     5.615000000     5.290000000
H     3.052000000     5.721000000     5.848000000
C     2.067000000     5.626000000     3.914000000
O     3.324000000     5.495000000     3.373000000
C     3.718000000     4.467000000     2.541000000
C     4.446000000     4.784000000     1.407000000
H     4.407000000     5.833000000     1.125000000
C     4.776000000     3.774000000     0.495000000
O     5.182000000     4.108000000    -0.749000000
C     5.747000000     3.125000000    -1.603000000
C     5.044000000     2.659000000    -2.686000000
H     4.108000000     3.086000000    -3.035000000
C     6.925000000     2.538000000    -1.186000000
H     7.448000000     2.858000000    -0.288000000
C     7.475000000     1.496000000    -1.982000000
H     8.334000000     0.908000000    -1.667000000
C     6.852000000     1.151000000    -3.145000000
H     7.258000000     0.390000000    -3.807000000
C     5.587000000     1.658000000    -3.506000000
O     5.008000000     1.264000000    -4.730000000
C     3.969000000     0.371000000    -4.780000000
C     2.937000000     0.503000000    -5.777000000
H     3.021000000     1.106000000    -6.677000000
C     1.803000000    -0.295000000    -5.702000000
O     0.890000000    -0.256000000    -6.684000000
C    -0.303000000    -1.041000000    -6.606000000
C    -0.343000000    -2.402000000    -7.010000000
H     0.599000000    -2.808000000    -7.371000000
C    -1.495000000    -3.126000000    -7.102000000
H    -1.550000000    -4.171000000    -7.397000000
C    -2.714000000    -2.478000000    -6.804000000
H    -3.645000000    -3.036000000    -6.744000000
C    -2.692000000    -1.153000000    -6.433000000
C    -1.520000000    -0.403000000    -6.306000000
H    -1.377000000     0.633000000    -6.008000000
C     0.555000000     1.097000000    -2.075000000
H     1.297000000     1.324000000    -2.836000000
C     0.836000000     0.243000000    -1.021000000
H     1.789000000    -0.273000000    -0.936000000
C    -0.150000000     0.035000000    -0.015000000
H     0.095000000    -0.716000000     0.771000000
C    -1.349000000     0.624000000    -0.073000000
H    -2.122000000     0.457000000     0.672000000
C    -1.714000000     1.403000000    -1.181000000
H    -2.761000000     1.690000000    -1.239000000
C    -0.742000000     1.605000000    -2.193000000
C    -1.217000000     2.283000000    -3.507000000
O    -2.260000000     2.876000000    -3.544000000
O    -0.352000000     2.554000000    -4.330000000
O     0.434000000     2.157000000    -8.820000000
H    -0.402000000     1.738000000    -9.025000000
H     0.257000000     2.671000000    -8.032000000
O     0.030000000     5.039000000    -1.270000000
H    -0.874000000     5.131000000    -0.969000000
H     0.498000000     5.758000000    -0.845000000
O     3.399000000     3.879000000    -7.323000000
H     3.535000000     3.529000000    -8.204000000
H     2.518000000     3.590000000    -7.085000000
O    -0.921000000     5.697000000    -4.175000000
H    -0.316000000     5.687000000    -3.433000000
H    -1.511000000     4.961000000    -4.013000000
O    -5.377000000     4.477000000    -6.568000000
H    -4.895000000     5.279000000    -6.368000000
H    -4.806000000     3.772000000    -6.263000000
O    -3.557000000     2.768000000    -5.746000000
H    -3.212000000     2.745000000    -4.853000000
H    -3.238000000     1.960000000    -6.147000000
O    -2.825000000     6.191000000    -0.048000000
H    -2.724000000     6.826000000    -0.757000000
H    -3.170000000     5.407000000    -0.477000000
O    -4.997000000     6.667000000    -3.404000000
H    -4.522000000     7.056000000    -2.670000000
H    -5.919000000     6.831000000    -3.206000000
O     0.353000000     3.685000000    -6.545000000
H     0.078000000     3.126000000    -5.819000000
H     0.241000000     4.577000000    -6.217000000
O    -2.246000000     0.993000000    -8.984000000
H    -3.086000000     1.429000000    -9.127000000
H    -2.434000000     0.063000000    -9.112000000
O    -2.625000000     7.567000000    -2.427000000
H    -2.216000000     6.759000000    -2.735000000
H    -2.336000000     8.234000000    -3.050000000
O     1.130000000     6.572000000    -6.033000000
H     0.474000000     6.418000000    -5.352000000
H     1.932000000     6.774000000    -5.551000000
O    -7.311000000     3.837000000    -4.652000000
H    -6.724000000     3.748000000    -5.402000000
H    -7.779000000     4.658000000    -4.810000000
O    -3.836000000     6.815000000    -6.124000000
H    -3.214000000     7.170000000    -6.759000000
H    -3.377000000     6.862000000    -5.286000000
O    -2.186000000     4.608000000    -7.810000000
H    -2.327000000     4.048000000    -7.047000000
H    -1.340000000     5.025000000    -7.648000000
O    -7.028000000     4.856000000    -1.645000000
H    -6.194000000     4.517000000    -1.321000000
H    -7.183000000     4.377000000    -2.459000000
O     3.826000000     5.054000000    -4.934000000
H     3.865000000     4.566000000    -5.756000000
H     3.102000000     4.655000000    -4.451000000
O     1.772000000     3.959000000    -3.422000000
H     1.501000000     4.303000000    -2.571000000
H     1.038000000     3.415000000    -3.706000000
O    -4.101000000     4.539000000    -2.216000000
H    -3.552000000     3.899000000    -2.669000000
H    -4.341000000     5.172000000    -2.893000000
