215
-1457.61853
C    -1.806000000     3.095000000     3.557000000
H    -0.813000000     3.027000000     3.993000000
C    -2.532000000     1.917000000     3.302000000
C    -3.772000000     2.023000000     2.629000000
H    -4.326000000     1.159000000     2.272000000
C    -1.867000000     0.579000000     3.600000000
O    -1.113000000     0.627000000     4.836000000
H    -1.230000000     0.322000000     2.741000000
O    -2.890000000    -0.379000000     3.715000000
C    -2.740000000    -1.539000000     3.033000000
C    -3.490000000    -1.773000000     1.876000000
H    -4.198000000    -0.995000000     1.601000000
C    -3.348000000    -2.883000000     1.045000000
O    -3.986000000    -3.033000000    -0.116000000
C    -2.462000000    -3.896000000     1.537000000
C    -2.086000000    -5.106000000     0.596000000
H    -1.791000000    -6.002000000     1.147000000
C    -1.040000000    -4.775000000    -0.394000000
C     0.342000000    -5.004000000    -0.039000000
H     0.676000000    -5.501000000     0.868000000
H    -2.962000000    -5.401000000     0.015000000
C    -1.741000000    -3.644000000     2.693000000
H    -0.970000000    -4.372000000     2.931000000
C    -1.900000000    -2.528000000     3.513000000
C    -1.089000000    -2.340000000     4.799000000
H    -0.754000000    -3.313000000     5.165000000
H    -1.702000000    -1.974000000     5.625000000
C     0.130000000    -1.474000000     4.562000000
C     1.298000000    -2.158000000     4.273000000
H     1.389000000    -3.239000000     4.211000000
C     0.101000000    -0.092000000     4.666000000
C     1.251000000     0.663000000     4.429000000
H     1.222000000     1.749000000     4.477000000
C     2.392000000     0.008000000     4.044000000
O     3.470000000     0.886000000     3.737000000
C     3.743000000     1.135000000     2.389000000
C     4.154000000     2.536000000     2.118000000
C     4.987000000     2.785000000     1.038000000
H     5.437000000     1.950000000     0.506000000
C     3.372000000     3.570000000     2.527000000
H     2.572000000     3.458000000     3.254000000
O     4.763000000     0.071000000     1.976000000
H     2.806000000     1.015000000     1.825000000
C     2.432000000    -1.419000000     4.007000000
C     3.735000000    -2.139000000     3.669000000
H     3.662000000    -3.131000000     4.121000000
H     4.542000000    -1.538000000     4.092000000
C     3.853000000    -2.180000000     2.191000000
C     3.369000000    -3.349000000     1.598000000
H     3.031000000    -4.240000000     2.121000000
C     4.307000000    -1.124000000     1.423000000
C     4.360000000    -1.231000000     0.045000000
H     4.821000000    -0.425000000    -0.520000000
C     3.860000000    -2.335000000    -0.576000000
O     3.570000000    -2.084000000    -1.900000000
C     2.274000000    -2.019000000    -2.390000000
C     2.124000000    -0.971000000    -3.467000000
C     2.720000000     0.248000000    -3.295000000
H     3.323000000     0.460000000    -2.415000000
C     1.295000000    -1.227000000    -4.578000000
H     0.876000000    -2.224000000    -4.692000000
O     1.882000000    -3.303000000    -2.863000000
H     1.513000000    -1.772000000    -1.635000000
C     3.358000000    -3.402000000     0.193000000
C     2.760000000    -4.642000000    -0.410000000
H     2.933000000    -5.521000000     0.214000000
H     3.441000000    -4.891000000    -1.227000000
C     1.353000000    -4.496000000    -0.877000000
C     1.019000000    -3.919000000    -2.048000000
C    -0.308000000    -3.814000000    -2.412000000
H    -0.630000000    -3.399000000    -3.364000000
C    -1.344000000    -4.210000000    -1.620000000
O    -2.628000000    -3.843000000    -1.940000000
C    -3.227000000    -2.633000000    -1.287000000
H    -2.379000000    -2.014000000    -0.958000000
C    -4.064000000    -1.801000000    -2.275000000
C    -4.922000000    -0.864000000    -1.850000000
H    -5.100000000    -0.725000000    -0.787000000
C    -3.749000000    -1.975000000    -3.617000000
H    -3.058000000    -2.731000000    -3.982000000
C    -4.508000000    -1.295000000    -4.543000000
O    -4.210000000    -1.502000000    -5.880000000
C    -5.391000000    -0.294000000    -4.163000000
H    -5.802000000     0.364000000    -4.923000000
C    -5.502000000     0.049000000    -2.791000000
O    -6.202000000     1.086000000    -2.410000000
C    -6.508000000     1.337000000    -1.062000000
C    -5.812000000     2.310000000    -0.352000000
H    -5.030000000     2.875000000    -0.853000000
C    -7.533000000     0.647000000    -0.499000000
H    -8.142000000    -0.011000000    -1.114000000
C    -7.867000000     0.848000000     0.849000000
H    -8.624000000     0.200000000     1.281000000
C    -7.230000000     1.806000000     1.576000000
H    -7.565000000     1.878000000     2.607000000
C    -6.196000000     2.608000000     0.973000000
O    -5.517000000     3.549000000     1.720000000
C    -4.255000000     3.269000000     2.297000000
C    -3.523000000     4.423000000     2.590000000
H    -4.045000000     5.359000000     2.406000000
C    -2.368000000     4.337000000     3.257000000
O    -1.810000000     5.515000000     3.706000000
C    -0.459000000     5.632000000     4.086000000
C     0.584000000     5.775000000     3.130000000
H     0.307000000     5.776000000     2.079000000
C    -0.036000000     5.429000000     5.386000000
H    -0.801000000     5.391000000     6.158000000
C     1.334000000     5.403000000     5.723000000
H     1.595000000     5.292000000     6.772000000
C     2.314000000     5.699000000     4.765000000
H     3.369000000     5.758000000     5.023000000
C     1.929000000     5.876000000     3.495000000
O     2.936000000     6.011000000     2.555000000
C     3.661000000     4.902000000     2.226000000
C     4.533000000     5.076000000     1.085000000
H     4.595000000     6.099000000     0.722000000
C     5.164000000     4.046000000     0.493000000
O     5.880000000     4.312000000    -0.610000000
C     5.944000000     3.406000000    -1.684000000
C     4.865000000     3.365000000    -2.620000000
H     4.122000000     4.152000000    -2.515000000
C     6.919000000     2.383000000    -1.813000000
H     7.812000000     2.349000000    -1.195000000
C     6.766000000     1.335000000    -2.718000000
H     7.537000000     0.571000000    -2.770000000
C     5.636000000     1.342000000    -3.580000000
H     5.493000000     0.423000000    -4.143000000
C     4.708000000     2.360000000    -3.579000000
O     3.512000000     2.316000000    -4.272000000
C     2.680000000     1.204000000    -4.339000000
C     1.814000000     0.964000000    -5.451000000
H     1.821000000     1.658000000    -6.287000000
C     1.094000000    -0.225000000    -5.558000000
O     0.509000000    -0.513000000    -6.724000000
C    -0.655000000    -1.286000000    -6.859000000
C    -0.493000000    -2.414000000    -7.630000000
H     0.511000000    -2.613000000    -7.996000000
C    -1.604000000    -3.264000000    -7.872000000
H    -1.478000000    -4.157000000    -8.479000000
C    -2.810000000    -2.968000000    -7.239000000
H    -3.654000000    -3.606000000    -7.491000000
C    -3.002000000    -1.773000000    -6.453000000
C    -1.845000000    -0.988000000    -6.242000000
H    -1.924000000    -0.158000000    -5.545000000
C     0.678000000     1.691000000    -1.286000000
H     1.593000000     2.223000000    -1.535000000
C     0.746000000     0.685000000    -0.347000000
H     1.741000000     0.542000000     0.067000000
C    -0.352000000     0.050000000     0.123000000
H    -0.230000000    -0.818000000     0.685000000
C    -1.594000000     0.482000000    -0.355000000
H    -2.495000000     0.063000000     0.086000000
C    -1.729000000     1.439000000    -1.315000000
H    -2.715000000     1.709000000    -1.683000000
C    -0.581000000     2.078000000    -1.793000000
C    -0.638000000     3.232000000    -2.791000000
O    -1.678000000     3.650000000    -3.252000000
O     0.415000000     3.758000000    -3.164000000
O    -0.598000000     2.066000000    -7.729000000
H    -0.983000000     1.375000000    -7.191000000
H    -0.551000000     2.824000000    -7.147000000
O     2.848000000     8.153000000    -5.101000000
H     2.440000000     7.697000000    -5.837000000
H     2.580000000     7.651000000    -4.330000000
O    -0.912000000     4.405000000     0.078000000
H    -1.773000000     4.447000000    -0.337000000
H    -0.970000000     3.661000000     0.677000000
O    -1.442000000     6.020000000    -4.245000000
H    -0.546000000     5.733000000    -4.419000000
H    -1.871000000     5.252000000    -3.869000000
O    -4.559000000     5.474000000    -6.577000000
H    -4.155000000     6.296000000    -6.299000000
H    -4.039000000     5.193000000    -7.329000000
O    -2.676000000     2.766000000    -5.498000000
H    -2.103000000     3.066000000    -4.793000000
H    -3.557000000     3.007000000    -5.210000000
O    -2.765000000     7.415000000     0.028000000
H    -2.852000000     7.558000000    -0.914000000
H    -2.759000000     6.462000000     0.126000000
O    -5.222000000     7.817000000    -3.591000000
H    -4.471000000     7.822000000    -4.184000000
H    -4.935000000     7.290000000    -2.845000000
O     0.292000000     4.168000000    -6.029000000
H     0.223000000     3.985000000    -5.092000000
H     1.128000000     4.624000000    -6.123000000
O    -3.825000000     2.189000000    -7.857000000
H    -3.355000000     2.257000000    -7.026000000
H    -3.710000000     1.277000000    -8.124000000
O    -2.439000000     8.155000000    -2.671000000
H    -1.921000000     7.383000000    -2.903000000
H    -2.234000000     8.794000000    -3.353000000
O    -1.643000000     5.929000000    -7.292000000
H    -0.957000000     5.288000000    -7.107000000
H    -1.972000000     6.183000000    -6.429000000
O    -6.108000000     3.820000000    -5.142000000
H    -5.582000000     4.469000000    -5.610000000
H    -6.763000000     3.538000000    -5.780000000
O    -5.529000000     4.838000000    -2.563000000
H    -6.282000000     5.337000000    -2.248000000
H    -5.751000000     4.613000000    -3.467000000
O     1.486000000     6.153000000    -3.832000000
H     1.075000000     5.311000000    -3.636000000
H     1.791000000     6.474000000    -2.983000000
O     4.340000000     4.108000000    -6.490000000
H     3.701000000     3.651000000    -5.944000000
H     5.001000000     3.446000000    -6.691000000
O     1.887000000     5.153000000    -0.851000000
H     2.406000000     4.439000000    -0.481000000
H     1.068000000     4.738000000    -1.121000000
O    -3.212000000     4.806000000    -0.986000000
H    -2.714000000     4.589000000    -1.774000000
H    -4.127000000     4.772000000    -1.264000000
O     2.392000000     7.495000000    -1.684000000
H     2.075000000     6.746000000    -1.180000000
H     2.896000000     8.011000000    -1.054000000
