215
-1441.36863
C    -1.987000000     2.294000000     3.805000000
H    -0.942000000     2.144000000     4.065000000
C    -2.762000000     1.159000000     3.571000000
C    -4.075000000     1.481000000     3.144000000
H    -4.757000000     0.650000000     2.980000000
C    -2.254000000    -0.268000000     3.621000000
O    -1.351000000    -0.514000000     4.691000000
H    -1.733000000    -0.363000000     2.657000000
O    -3.303000000    -1.211000000     3.844000000
C    -3.173000000    -2.307000000     2.952000000
C    -3.907000000    -2.234000000     1.739000000
H    -4.728000000    -1.531000000     1.626000000
C    -3.707000000    -3.145000000     0.781000000
O    -4.211000000    -3.050000000    -0.515000000
C    -2.693000000    -4.128000000     0.927000000
C    -2.343000000    -5.089000000    -0.253000000
H    -2.057000000    -6.083000000     0.096000000
C    -1.209000000    -4.444000000    -1.021000000
C     0.077000000    -4.890000000    -0.805000000
H     0.156000000    -5.684000000    -0.066000000
H    -3.207000000    -5.232000000    -0.907000000
C    -1.933000000    -4.137000000     2.054000000
H    -1.121000000    -4.859000000     2.051000000
C    -2.108000000    -3.250000000     3.106000000
C    -1.253000000    -3.273000000     4.356000000
H    -0.931000000    -4.302000000     4.524000000
H    -1.849000000    -2.970000000     5.220000000
C     0.026000000    -2.452000000     4.263000000
C     1.238000000    -3.005000000     3.948000000
H     1.361000000    -4.085000000     3.945000000
C    -0.107000000    -1.095000000     4.457000000
C     1.020000000    -0.312000000     4.186000000
H     0.949000000     0.773000000     4.206000000
C     2.285000000    -0.876000000     3.863000000
O     3.291000000    -0.011000000     3.625000000
C     3.685000000     0.164000000     2.223000000
C     3.901000000     1.681000000     1.930000000
C     4.614000000     2.109000000     0.814000000
H     5.062000000     1.403000000     0.119000000
C     3.326000000     2.678000000     2.775000000
H     2.517000000     2.441000000     3.461000000
O     4.818000000    -0.631000000     1.945000000
H     2.844000000    -0.098000000     1.565000000
C     2.423000000    -2.251000000     3.829000000
C     3.735000000    -2.968000000     3.457000000
H     3.734000000    -3.998000000     3.819000000
H     4.611000000    -2.493000000     3.905000000
C     3.770000000    -2.867000000     1.954000000
C     3.193000000    -3.818000000     1.098000000
H     2.722000000    -4.728000000     1.460000000
C     4.414000000    -1.821000000     1.331000000
C     4.539000000    -1.707000000    -0.092000000
H     5.091000000    -0.910000000    -0.583000000
C     3.943000000    -2.620000000    -0.913000000
O     3.884000000    -2.318000000    -2.231000000
C     2.634000000    -1.698000000    -2.740000000
C     2.838000000    -0.650000000    -3.839000000
C     3.956000000     0.174000000    -3.851000000
H     4.639000000    -0.080000000    -3.045000000
C     1.870000000    -0.404000000    -4.834000000
H     1.063000000    -1.115000000    -4.995000000
O     1.850000000    -2.777000000    -3.220000000
H     2.110000000    -1.191000000    -1.917000000
C     3.253000000    -3.664000000    -0.319000000
C     2.527000000    -4.659000000    -1.192000000
H     2.445000000    -5.640000000    -0.720000000
H     3.087000000    -4.839000000    -2.112000000
C     1.118000000    -4.240000000    -1.448000000
C     0.843000000    -3.333000000    -2.511000000
C    -0.435000000    -2.939000000    -2.804000000
H    -0.614000000    -2.164000000    -3.544000000
C    -1.461000000    -3.448000000    -1.986000000
O    -2.749000000    -3.217000000    -2.353000000
C    -3.405000000    -2.321000000    -1.454000000
H    -2.554000000    -1.882000000    -0.913000000
C    -4.063000000    -1.143000000    -2.191000000
C    -5.110000000    -0.466000000    -1.627000000
H    -5.633000000    -0.971000000    -0.819000000
C    -3.486000000    -0.675000000    -3.345000000
H    -2.565000000    -1.092000000    -3.745000000
C    -4.049000000     0.435000000    -4.044000000
O    -3.474000000     0.997000000    -5.166000000
C    -5.050000000     1.111000000    -3.484000000
H    -5.532000000     1.902000000    -4.052000000
C    -5.606000000     0.667000000    -2.250000000
O    -6.759000000     1.261000000    -1.892000000
C    -7.131000000     1.545000000    -0.588000000
C    -6.265000000     1.992000000     0.364000000
H    -5.264000000     2.328000000     0.104000000
C    -8.482000000     1.584000000    -0.394000000
H    -9.229000000     1.537000000    -1.181000000
C    -9.013000000     1.917000000     0.900000000
H   -10.085000000     2.087000000     0.966000000
C    -8.089000000     2.282000000     1.894000000
H    -8.500000000     2.603000000     2.848000000
C    -6.780000000     2.362000000     1.627000000
O    -5.972000000     2.957000000     2.641000000
C    -4.653000000     2.729000000     2.987000000
C    -3.831000000     3.804000000     3.231000000
H    -4.177000000     4.817000000     3.043000000
C    -2.494000000     3.573000000     3.634000000
O    -1.630000000     4.670000000     3.812000000
C    -0.426000000     4.672000000     4.359000000
C     0.681000000     4.749000000     3.519000000
H     0.612000000     4.749000000     2.434000000
C    -0.300000000     4.705000000     5.764000000
H    -1.197000000     4.672000000     6.376000000
C     0.978000000     4.828000000     6.367000000
H     1.027000000     4.736000000     7.449000000
C     2.076000000     4.820000000     5.530000000
H     3.060000000     4.848000000     5.990000000
C     1.942000000     4.762000000     4.176000000
O     3.098000000     4.925000000     3.450000000
C     3.538000000     4.055000000     2.544000000
C     4.387000000     4.420000000     1.514000000
H     4.659000000     5.458000000     1.338000000
C     4.877000000     3.461000000     0.641000000
O     5.807000000     4.000000000    -0.228000000
C     6.301000000     3.378000000    -1.339000000
C     5.382000000     3.240000000    -2.397000000
H     4.437000000     3.774000000    -2.343000000
C     7.606000000     2.848000000    -1.416000000
H     8.322000000     2.920000000    -0.601000000
C     7.947000000     2.086000000    -2.528000000
H     9.005000000     1.837000000    -2.525000000
C     7.010000000     1.767000000    -3.483000000
H     7.154000000     1.119000000    -4.344000000
C     5.773000000     2.345000000    -3.416000000
O     4.972000000     2.288000000    -4.526000000
C     4.087000000     1.267000000    -4.711000000
C     3.034000000     1.483000000    -5.599000000
H     3.128000000     2.370000000    -6.221000000
C     1.927000000     0.651000000    -5.731000000
O     1.035000000     0.871000000    -6.797000000
C    -0.213000000     0.339000000    -6.728000000
C    -0.495000000    -0.729000000    -7.592000000
H     0.311000000    -1.099000000    -8.221000000
C    -1.840000000    -1.252000000    -7.607000000
H    -1.994000000    -2.108000000    -8.258000000
C    -2.820000000    -0.713000000    -6.816000000
H    -3.828000000    -1.095000000    -6.958000000
C    -2.511000000     0.309000000    -5.904000000
C    -1.247000000     0.853000000    -5.909000000
H    -0.941000000     1.706000000    -5.308000000
C     0.642000000     1.889000000    -1.604000000
H     1.525000000     2.292000000    -2.093000000
C     0.855000000     0.783000000    -0.734000000
H     1.843000000     0.361000000    -0.569000000
C    -0.274000000     0.255000000    -0.087000000
H    -0.209000000    -0.516000000     0.584000000
C    -1.549000000     0.806000000    -0.186000000
H    -2.429000000     0.348000000     0.258000000
C    -1.709000000     1.903000000    -1.061000000
H    -2.714000000     2.274000000    -1.243000000
C    -0.661000000     2.445000000    -1.855000000
C    -0.990000000     3.607000000    -2.846000000
O    -2.130000000     4.063000000    -2.905000000
O    -0.113000000     4.119000000    -3.514000000
O    -1.217000000     7.720000000    -7.575000000
H    -0.628000000     8.284000000    -7.074000000
H    -1.703000000     7.232000000    -6.911000000
O     1.315000000     3.903000000    -7.812000000
H     1.091000000     3.053000000    -7.433000000
H     0.885000000     4.540000000    -7.243000000
O     1.628000000     5.695000000     0.224000000
H     1.275000000     6.379000000     0.793000000
H     2.074000000     5.094000000     0.821000000
O    -0.903000000     7.442000000    -3.054000000
H    -1.501000000     6.805000000    -2.663000000
H    -0.112000000     6.939000000    -3.249000000
O    -2.139000000     7.094000000     2.368000000
H    -2.330000000     6.978000000     3.298000000
H    -2.027000000     6.203000000     2.034000000
O    -1.908000000    10.057000000    -2.717000000
H    -1.308000000    10.667000000    -3.145000000
H    -1.502000000     9.199000000    -2.836000000
O    -1.977000000     4.864000000     0.570000000
H    -1.983000000     3.933000000     0.347000000
H    -2.225000000     5.306000000    -0.242000000
O    -4.909000000     4.263000000    -7.910000000
H    -4.565000000     4.923000000    -8.512000000
H    -4.374000000     4.356000000    -7.122000000
O    -3.610000000     3.729000000    -4.875000000
H    -3.477000000     2.886000000    -5.309000000
H    -3.016000000     3.709000000    -4.124000000
O    -2.374000000     6.124000000    -5.781000000
H    -2.644000000     5.239000000    -5.534000000
H    -2.993000000     6.698000000    -5.329000000
O    -4.128000000     8.996000000    -1.546000000
H    -3.315000000     9.330000000    -1.924000000
H    -4.048000000     8.044000000    -1.609000000
O    -4.321000000     7.324000000    -4.295000000
H    -4.302000000     8.239000000    -4.574000000
H    -5.178000000     7.005000000    -4.576000000
O     0.283000000     5.149000000    -5.693000000
H    -0.485000000     5.680000000    -5.905000000
H     0.072000000     4.748000000    -4.850000000
O     0.199000000     9.233000000    -4.964000000
H     1.146000000     9.226000000    -5.107000000
H     0.063000000     8.631000000    -4.233000000
O    -6.753000000     5.242000000    -2.614000000
H    -6.908000000     6.179000000    -2.494000000
H    -6.551000000     5.150000000    -3.545000000
O     3.340000000     6.127000000    -5.285000000
H     3.392000000     5.738000000    -6.157000000
H     2.513000000     5.802000000    -4.926000000
O     2.087000000     5.171000000    -2.449000000
H     1.921000000     5.030000000    -1.517000000
H     1.364000000     4.726000000    -2.892000000
O    -3.661000000     6.045000000    -2.218000000
H    -3.276000000     5.206000000    -2.469000000
H    -3.880000000     6.466000000    -3.049000000
O     3.803000000     7.289000000    -1.734000000
H     3.361000000     7.880000000    -1.124000000
H     3.141000000     6.634000000    -1.954000000
