215
-1466.68692
C    -2.686000000     1.811000000     4.379000000
H    -1.674000000     1.886000000     4.768000000
C    -3.202000000     0.661000000     3.801000000
C    -4.436000000     0.655000000     3.147000000
H    -4.803000000    -0.196000000     2.580000000
C    -2.242000000    -0.576000000     3.739000000
O    -1.274000000    -0.756000000     4.841000000
H    -1.762000000    -0.398000000     2.765000000
O    -2.974000000    -1.820000000     3.669000000
C    -2.602000000    -2.793000000     2.757000000
C    -3.162000000    -2.735000000     1.476000000
H    -3.807000000    -1.892000000     1.240000000
C    -2.624000000    -3.525000000     0.468000000
O    -3.063000000    -3.377000000    -0.820000000
C    -1.722000000    -4.523000000     0.742000000
C    -1.132000000    -5.445000000    -0.296000000
H    -0.684000000    -6.251000000     0.290000000
C    -0.113000000    -4.745000000    -1.189000000
C     1.266000000    -4.861000000    -0.829000000
H     1.509000000    -5.393000000     0.087000000
H    -1.895000000    -5.905000000    -0.927000000
C    -1.169000000    -4.550000000     2.022000000
H    -0.249000000    -5.120000000     2.124000000
C    -1.531000000    -3.695000000     3.032000000
C    -0.743000000    -3.628000000     4.293000000
H    -0.266000000    -4.586000000     4.511000000
H    -1.352000000    -3.410000000     5.173000000
C     0.307000000    -2.507000000     4.122000000
C     1.638000000    -2.730000000     3.797000000
H     1.841000000    -3.754000000     3.494000000
C    -0.011000000    -1.195000000     4.462000000
C     0.938000000    -0.161000000     4.358000000
H     0.647000000     0.885000000     4.415000000
C     2.232000000    -0.420000000     4.029000000
O     3.049000000     0.618000000     3.728000000
C     3.061000000     0.976000000     2.298000000
C     2.819000000     2.458000000     2.090000000
C     3.007000000     2.932000000     0.764000000
H     3.271000000     2.168000000     0.037000000
C     2.242000000     3.358000000     3.024000000
H     2.206000000     3.042000000     4.063000000
O     4.226000000     0.484000000     1.567000000
H     2.178000000     0.508000000     1.837000000
C     2.603000000    -1.690000000     3.713000000
C     4.063000000    -2.082000000     3.241000000
H     4.086000000    -3.121000000     3.578000000
H     4.800000000    -1.421000000     3.701000000
C     4.226000000    -1.983000000     1.737000000
C     4.108000000    -3.187000000     1.044000000
H     4.011000000    -4.156000000     1.527000000
C     4.397000000    -0.778000000     1.011000000
C     4.661000000    -0.799000000    -0.385000000
H     4.780000000     0.114000000    -0.963000000
C     4.602000000    -1.991000000    -1.103000000
O     4.596000000    -1.896000000    -2.490000000
C     3.265000000    -1.713000000    -3.128000000
C     3.337000000    -0.649000000    -4.196000000
C     4.061000000     0.517000000    -4.045000000
H     4.558000000     0.643000000    -3.087000000
C     2.446000000    -0.674000000    -5.262000000
H     1.691000000    -1.450000000    -5.351000000
O     2.798000000    -2.929000000    -3.672000000
H     2.469000000    -1.336000000    -2.469000000
C     4.167000000    -3.137000000    -0.380000000
C     3.660000000    -4.387000000    -1.117000000
H     3.767000000    -5.317000000    -0.556000000
H     4.418000000    -4.547000000    -1.887000000
C     2.206000000    -4.266000000    -1.663000000
C     1.858000000    -3.570000000    -2.845000000
C     0.560000000    -3.428000000    -3.153000000
H     0.243000000    -2.700000000    -3.895000000
C    -0.447000000    -4.029000000    -2.395000000
O    -1.701000000    -3.530000000    -2.615000000
C    -2.195000000    -2.571000000    -1.695000000
H    -1.381000000    -2.114000000    -1.113000000
C    -2.971000000    -1.451000000    -2.290000000
C    -4.252000000    -1.115000000    -1.856000000
H    -4.827000000    -1.719000000    -1.159000000
C    -2.267000000    -0.669000000    -3.185000000
H    -1.317000000    -1.030000000    -3.571000000
C    -2.910000000     0.492000000    -3.713000000
O    -2.266000000     1.284000000    -4.625000000
C    -4.145000000     0.827000000    -3.321000000
H    -4.652000000     1.743000000    -3.611000000
C    -4.837000000     0.018000000    -2.395000000
O    -6.094000000     0.413000000    -2.015000000
C    -6.734000000     0.344000000    -0.767000000
C    -6.311000000     1.057000000     0.353000000
H    -5.556000000     1.835000000     0.269000000
C    -7.877000000    -0.478000000    -0.610000000
H    -8.198000000    -1.089000000    -1.449000000
C    -8.561000000    -0.534000000     0.598000000
H    -9.423000000    -1.184000000     0.721000000
C    -8.075000000     0.235000000     1.691000000
H    -8.662000000     0.391000000     2.592000000
C    -6.908000000     0.961000000     1.583000000
O    -6.469000000     1.762000000     2.657000000
C    -5.231000000     1.793000000     3.182000000
C    -4.755000000     2.970000000     3.822000000
H    -5.327000000     3.894000000     3.809000000
C    -3.457000000     2.971000000     4.331000000
O    -2.992000000     4.141000000     4.896000000
C    -1.672000000     4.455000000     5.132000000
C    -0.774000000     4.890000000     4.231000000
H    -1.023000000     5.045000000     3.184000000
C    -1.319000000     4.268000000     6.467000000
H    -2.031000000     3.848000000     7.173000000
C    -0.047000000     4.601000000     6.860000000
H     0.253000000     4.518000000     7.902000000
C     0.812000000     5.225000000     5.930000000
H     1.776000000     5.637000000     6.217000000
C     0.539000000     5.240000000     4.563000000
O     1.498000000     5.539000000     3.687000000
C     1.896000000     4.670000000     2.699000000
C     2.205000000     5.102000000     1.454000000
H     2.034000000     6.154000000     1.239000000
C     2.667000000     4.241000000     0.471000000
O     2.887000000     4.711000000    -0.818000000
C     4.004000000     4.334000000    -1.561000000
C     3.771000000     3.800000000    -2.823000000
H     2.779000000     3.801000000    -3.267000000
C     5.265000000     4.262000000    -0.997000000
H     5.358000000     4.671000000     0.006000000
C     6.355000000     3.720000000    -1.697000000
H     7.300000000     3.650000000    -1.164000000
C     6.143000000     3.213000000    -2.940000000
H     6.915000000     2.800000000    -3.585000000
C     4.865000000     3.276000000    -3.500000000
O     4.733000000     2.688000000    -4.734000000
C     3.968000000     1.578000000    -4.914000000
C     3.269000000     1.439000000    -6.096000000
H     3.366000000     2.190000000    -6.876000000
C     2.490000000     0.300000000    -6.269000000
O     1.576000000     0.295000000    -7.330000000
C     0.250000000     0.248000000    -7.072000000
C    -0.532000000    -0.481000000    -7.971000000
H    -0.034000000    -0.963000000    -8.808000000
C    -1.908000000    -0.408000000    -7.879000000
H    -2.496000000    -0.796000000    -8.707000000
C    -2.515000000     0.096000000    -6.719000000
H    -3.600000000     0.068000000    -6.672000000
C    -1.779000000     0.741000000    -5.744000000
C    -0.361000000     0.822000000    -5.907000000
H     0.203000000     1.332000000    -5.129000000
C    -0.159000000     1.694000000    -1.349000000
H    -0.022000000     2.439000000    -2.129000000
C     0.830000000     0.762000000    -1.016000000
H     1.851000000     0.800000000    -1.388000000
C     0.504000000    -0.246000000    -0.158000000
H     1.241000000    -0.967000000     0.239000000
C    -0.785000000    -0.336000000     0.455000000
H    -0.960000000    -1.113000000     1.194000000
C    -1.735000000     0.679000000     0.192000000
H    -2.758000000     0.707000000     0.556000000
C    -1.418000000     1.618000000    -0.790000000
C    -2.464000000     2.640000000    -1.189000000
O    -3.375000000     2.879000000    -0.467000000
O    -2.276000000     3.391000000    -2.125000000
O    -5.843000000     5.912000000     0.457000000
H    -5.060000000     5.687000000     0.959000000
H    -5.507000000     6.334000000    -0.333000000
O    -0.549000000     6.908000000     1.184000000
H     0.093000000     7.583000000     1.407000000
H    -1.271000000     7.388000000     0.780000000
O    -3.284000000     4.907000000     1.231000000
H    -3.235000000     4.257000000     1.932000000
H    -3.099000000     4.412000000     0.432000000
O    -4.839000000    -1.684000000    -5.038000000
H    -5.774000000    -1.638000000    -4.840000000
H    -4.425000000    -1.867000000    -4.195000000
O    -3.711000000     7.487000000     2.076000000
H    -4.253000000     7.379000000     2.858000000
H    -3.532000000     6.593000000     1.784000000
O    -4.477000000     6.608000000    -1.835000000
H    -4.778000000     6.914000000    -2.690000000
H    -3.522000000     6.654000000    -1.886000000
O    -7.484000000     2.563000000    -3.470000000
H    -7.100000000     1.696000000    -3.343000000
H    -7.071000000     3.108000000    -2.801000000
O    -4.299000000     2.937000000    -6.987000000
H    -3.659000000     3.134000000    -6.302000000
H    -4.843000000     2.243000000    -6.614000000
O    -2.971000000     4.377000000    -4.432000000
H    -2.913000000     3.792000000    -3.676000000
H    -3.871000000     4.703000000    -4.414000000
O    -5.251000000     6.146000000    -4.795000000
H    -5.393000000     6.126000000    -5.741000000
H    -6.129000000     6.072000000    -4.420000000
O    -0.122000000     4.330000000    -4.216000000
H    -1.071000000     4.278000000    -4.328000000
H    -0.003000000     4.595000000    -3.304000000
O    -2.173000000     9.140000000    -0.259000000
H    -2.106000000     8.623000000    -1.062000000
H    -2.869000000     8.715000000     0.242000000
O    -1.764000000     7.232000000    -2.128000000
H    -1.609000000     7.494000000    -3.036000000
H    -1.203000000     6.467000000    -2.001000000
O    -2.070000000     6.801000000    -6.213000000
H    -1.339000000     7.221000000    -5.760000000
H    -2.656000000     6.517000000    -5.512000000
O     1.129000000     6.961000000    -2.588000000
H     0.922000000     6.159000000    -2.108000000
H     2.023000000     7.175000000    -2.321000000
O    -7.547000000     3.798000000     0.629000000
H    -7.014000000     4.592000000     0.672000000
H    -7.225000000     3.335000000    -0.145000000
O     2.210000000     4.961000000    -5.664000000
H     1.403000000     4.777000000    -5.182000000
H     2.103000000     4.499000000    -6.495000000
O    -0.458000000     5.082000000    -1.529000000
H    -0.053000000     4.685000000    -0.758000000
H    -1.265000000     4.583000000    -1.659000000
O    -5.439000000     3.951000000    -2.071000000
H    -4.799000000     3.575000000    -1.466000000
H    -5.285000000     4.895000000    -2.025000000
