215
-1431.21529
C     4.886000000    -2.275000000    -1.467000000
H     4.652000000    -3.285000000    -1.140000000
C     4.711000000    -1.130000000    -0.653000000
C     4.888000000     0.149000000    -1.184000000
H     4.641000000     0.955000000    -0.498000000
C     4.127000000    -1.280000000     0.702000000
O     4.071000000    -2.657000000     1.123000000
H     3.121000000    -0.842000000     0.622000000
O     4.846000000    -0.447000000     1.642000000
C     4.056000000     0.216000000     2.583000000
C     3.831000000     1.573000000     2.332000000
H     4.317000000     2.025000000     1.471000000
C     2.767000000     2.224000000     3.030000000
O     2.383000000     3.567000000     2.576000000
C     2.172000000     1.666000000     4.084000000
C     1.180000000     2.451000000     4.911000000
H     1.196000000     2.150000000     5.960000000
C    -0.263000000     2.258000000     4.277000000
C    -1.093000000     1.233000000     4.724000000
H    -0.649000000     0.564000000     5.456000000
H     1.415000000     3.514000000     4.822000000
C     2.489000000     0.367000000     4.444000000
H     1.932000000    -0.147000000     5.223000000
C     3.263000000    -0.385000000     3.567000000
C     3.509000000    -1.818000000     3.858000000
H     3.372000000    -2.069000000     4.912000000
H     4.533000000    -1.985000000     3.519000000
C     2.612000000    -2.765000000     3.034000000
C     1.373000000    -3.126000000     3.474000000
H     1.112000000    -3.047000000     4.527000000
C     2.988000000    -3.131000000     1.782000000
C     2.100000000    -3.809000000     0.925000000
H     2.270000000    -4.048000000    -0.122000000
C     0.828000000    -4.167000000     1.447000000
O    -0.146000000    -4.679000000     0.678000000
C    -1.226000000    -3.882000000     0.169000000
C    -1.361000000    -3.952000000    -1.348000000
C    -2.487000000    -3.625000000    -2.020000000
H    -3.335000000    -3.166000000    -1.520000000
C    -0.229000000    -4.410000000    -2.068000000
H     0.691000000    -4.559000000    -1.508000000
O    -2.441000000    -4.185000000     0.796000000
H    -0.976000000    -2.829000000     0.367000000
C     0.454000000    -3.834000000     2.721000000
C    -0.875000000    -4.383000000     3.317000000
H    -0.909000000    -4.476000000     4.405000000
H    -1.088000000    -5.381000000     2.928000000
C    -1.984000000    -3.432000000     3.005000000
C    -2.219000000    -2.416000000     3.962000000
H    -1.613000000    -2.426000000     4.864000000
C    -2.782000000    -3.360000000     1.823000000
C    -3.865000000    -2.542000000     1.666000000
H    -4.585000000    -2.639000000     0.857000000
C    -4.074000000    -1.479000000     2.616000000
O    -4.886000000    -0.501000000     2.213000000
C    -4.171000000     0.663000000     1.662000000
C    -4.814000000     1.081000000     0.353000000
C    -5.699000000     0.242000000    -0.312000000
H    -5.811000000    -0.816000000    -0.090000000
C    -4.565000000     2.389000000    -0.149000000
H    -3.887000000     3.080000000     0.345000000
O    -4.107000000     1.792000000     2.605000000
H    -3.145000000     0.326000000     1.457000000
C    -3.187000000    -1.388000000     3.734000000
C    -3.226000000    -0.156000000     4.658000000
H    -2.837000000    -0.527000000     5.609000000
H    -4.295000000     0.025000000     4.788000000
C    -2.386000000     1.028000000     4.204000000
C    -2.875000000     1.925000000     3.214000000
C    -2.041000000     2.897000000     2.719000000
H    -2.487000000     3.551000000     1.975000000
C    -0.720000000     3.138000000     3.279000000
O     0.086000000     4.090000000     2.633000000
C     1.166000000     3.673000000     1.838000000
H     0.943000000     2.691000000     1.396000000
C     1.325000000     4.600000000     0.567000000
C     2.604000000     4.608000000     0.001000000
H     3.441000000     4.081000000     0.452000000
C     0.229000000     5.199000000    -0.089000000
H    -0.752000000     4.964000000     0.316000000
C     0.346000000     5.844000000    -1.292000000
O    -0.689000000     6.408000000    -1.933000000
C     1.647000000     6.038000000    -1.794000000
H     1.931000000     6.572000000    -2.697000000
C     2.755000000     5.476000000    -1.116000000
O     4.026000000     5.717000000    -1.554000000
C     4.914000000     4.730000000    -1.734000000
C     4.700000000     3.490000000    -2.298000000
H     3.673000000     3.256000000    -2.569000000
C     6.204000000     5.027000000    -1.287000000
H     6.321000000     6.016000000    -0.853000000
C     7.205000000     4.108000000    -1.512000000
H     8.212000000     4.401000000    -1.227000000
C     7.009000000     2.914000000    -2.088000000
H     7.814000000     2.248000000    -2.385000000
C     5.736000000     2.592000000    -2.482000000
O     5.450000000     1.430000000    -3.164000000
C     5.398000000     0.222000000    -2.491000000
C     5.682000000    -0.852000000    -3.263000000
H     6.201000000    -0.804000000    -4.217000000
C     5.352000000    -2.100000000    -2.748000000
O     5.413000000    -3.225000000    -3.540000000
C     4.449000000    -4.128000000    -3.608000000
C     3.120000000    -3.750000000    -3.838000000
H     2.824000000    -2.714000000    -3.978000000
C     4.758000000    -5.409000000    -3.246000000
H     5.778000000    -5.556000000    -2.902000000
C     3.737000000    -6.436000000    -3.290000000
H     4.001000000    -7.475000000    -3.109000000
C     2.421000000    -6.124000000    -3.675000000
H     1.711000000    -6.920000000    -3.880000000
C     2.106000000    -4.782000000    -3.865000000
O     0.801000000    -4.487000000    -4.264000000
C    -0.323000000    -4.531000000    -3.476000000
C    -1.521000000    -4.212000000    -4.148000000
H    -1.468000000    -4.185000000    -5.233000000
C    -2.649000000    -3.788000000    -3.372000000
O    -3.703000000    -3.270000000    -4.075000000
C    -4.955000000    -3.028000000    -3.582000000
C    -5.294000000    -1.741000000    -3.096000000
H    -4.514000000    -0.984000000    -3.113000000
C    -5.984000000    -3.992000000    -3.641000000
H    -5.807000000    -4.954000000    -4.114000000
C    -7.270000000    -3.696000000    -3.274000000
H    -8.058000000    -4.419000000    -3.463000000
C    -7.564000000    -2.475000000    -2.758000000
H    -8.616000000    -2.306000000    -2.542000000
C    -6.581000000    -1.470000000    -2.609000000
O    -6.988000000    -0.241000000    -2.244000000
C    -6.125000000     0.613000000    -1.537000000
C    -5.903000000     1.945000000    -2.055000000
H    -6.426000000     2.199000000    -2.973000000
C    -5.113000000     2.828000000    -1.342000000
O    -4.907000000     4.042000000    -1.929000000
C    -4.081000000     5.001000000    -1.390000000
C    -4.553000000     5.872000000    -0.469000000
H    -5.555000000     5.658000000    -0.104000000
C    -3.750000000     6.957000000    -0.007000000
H    -4.125000000     7.716000000     0.675000000
C    -2.507000000     7.154000000    -0.634000000
H    -1.909000000     7.984000000    -0.267000000
C    -2.001000000     6.259000000    -1.597000000
C    -2.822000000     5.233000000    -2.021000000
H    -2.377000000     4.578000000    -2.766000000
C    -1.569000000     1.535000000    -2.163000000
H    -2.610000000     1.814000000    -2.308000000
C    -1.249000000     0.620000000    -1.142000000
H    -2.058000000     0.297000000    -0.492000000
C     0.114000000     0.497000000    -0.775000000
H     0.407000000    -0.092000000     0.126000000
C     1.103000000     1.114000000    -1.570000000
H     2.119000000     1.061000000    -1.187000000
C     0.761000000     1.871000000    -2.730000000
H     1.562000000     2.264000000    -3.351000000
C    -0.581000000     2.141000000    -2.975000000
C    -0.889000000     2.926000000    -4.250000000
O     0.044000000     3.404000000    -4.843000000
O    -2.020000000     3.071000000    -4.767000000
O    -6.236000000     6.184000000    -3.408000000
H    -5.976000000     5.326000000    -3.070000000
H    -5.662000000     6.803000000    -2.956000000
O    -3.856000000     3.868000000    -8.905000000
H    -4.424000000     3.140000000    -9.159000000
H    -3.088000000     3.781000000    -9.470000000
O    -3.294000000     7.344000000    -7.588000000
H    -3.189000000     7.568000000    -8.512000000
H    -2.430000000     7.030000000    -7.318000000
O    -2.955000000     0.897000000    -9.836000000
H    -2.360000000     0.865000000    -9.086000000
H    -2.729000000     1.710000000   -10.286000000
O    -3.792000000     1.056000000    -4.947000000
H    -3.219000000     1.778000000    -4.688000000
H    -3.247000000     0.508000000    -5.511000000
O    -6.259000000     3.742000000    -6.273000000
H    -6.975000000     4.331000000    -6.035000000
H    -5.465000000     4.236000000    -6.070000000
O    -6.413000000     0.981000000    -5.272000000
H    -5.576000000     1.095000000    -4.821000000
H    -6.585000000     1.832000000    -5.675000000
O    -1.460000000     5.298000000    -6.449000000
H    -0.953000000     4.732000000    -5.866000000
H    -1.199000000     5.028000000    -7.330000000
O    -2.305000000     2.151000000    -7.246000000
H    -2.922000000     2.749000000    -7.669000000
H    -2.115000000     2.562000000    -6.402000000
O     0.663000000    -0.529000000    -6.186000000
H     1.065000000    -1.203000000    -5.637000000
H     1.265000000     0.213000000    -6.133000000
O     1.953000000     1.920000000    -6.353000000
H     2.341000000     2.534000000    -6.976000000
H     1.313000000     2.442000000    -5.869000000
O    -4.040000000     4.834000000    -5.630000000
H    -3.460000000     4.130000000    -5.337000000
H    -3.520000000     5.322000000    -6.268000000
O     1.956000000     5.214000000    -5.131000000
H     1.572000000     6.056000000    -4.887000000
H     1.261000000     4.576000000    -4.965000000
O    -2.256000000    -2.488000000    -8.214000000
H    -2.243000000    -1.679000000    -7.703000000
H    -1.372000000    -2.844000000    -8.122000000
O    -1.970000000    -0.347000000    -6.626000000
H    -1.039000000    -0.270000000    -6.418000000
H    -2.231000000     0.537000000    -6.885000000
O     4.590000000     5.094000000    -5.481000000
H     3.666000000     5.248000000    -5.285000000
H     4.876000000     5.891000000    -5.928000000
O     1.822000000     8.047000000    -5.182000000
H     1.304000000     7.914000000    -5.976000000
H     2.712000000     8.199000000    -5.499000000
O     2.453000000     4.313000000    -8.002000000
H     1.678000000     4.582000000    -8.496000000
H     2.443000000     4.868000000    -7.222000000
O     0.202000000     5.839000000    -8.645000000
H    -0.311000000     6.052000000    -9.425000000
H     0.673000000     6.646000000    -8.441000000
