215
-1456.59385
C    -2.658000000     1.929000000     4.062000000
H    -1.656000000     2.151000000     4.421000000
C    -3.022000000     0.574000000     3.812000000
C    -4.275000000     0.333000000     3.246000000
H    -4.534000000    -0.706000000     3.058000000
C    -2.004000000    -0.536000000     3.838000000
O    -1.110000000    -0.321000000     4.945000000
H    -1.465000000    -0.543000000     2.879000000
O    -2.643000000    -1.833000000     3.971000000
C    -2.149000000    -2.827000000     3.151000000
C    -2.845000000    -3.240000000     2.046000000
H    -3.799000000    -2.796000000     1.775000000
C    -2.256000000    -4.108000000     1.068000000
O    -2.858000000    -4.139000000    -0.189000000
C    -1.026000000    -4.728000000     1.354000000
C    -0.361000000    -5.633000000     0.327000000
H     0.205000000    -6.416000000     0.836000000
C     0.513000000    -4.762000000    -0.578000000
C     1.858000000    -4.613000000    -0.341000000
H     2.299000000    -5.007000000     0.571000000
H    -1.088000000    -6.206000000    -0.253000000
C    -0.423000000    -4.432000000     2.571000000
H     0.418000000    -5.022000000     2.925000000
C    -0.939000000    -3.458000000     3.453000000
C    -0.158000000    -3.120000000     4.684000000
H     0.525000000    -3.914000000     4.995000000
H    -0.821000000    -2.985000000     5.540000000
C     0.656000000    -1.877000000     4.562000000
C     1.959000000    -1.984000000     4.184000000
H     2.351000000    -2.954000000     3.890000000
C     0.204000000    -0.579000000     4.748000000
C     1.020000000     0.534000000     4.612000000
H     0.587000000     1.516000000     4.781000000
C     2.317000000     0.387000000     4.144000000
O     2.888000000     1.456000000     3.551000000
C     2.938000000     1.687000000     2.167000000
C     2.457000000     3.083000000     1.792000000
C     2.564000000     3.550000000     0.515000000
H     2.982000000     2.894000000    -0.245000000
C     1.783000000     3.881000000     2.722000000
H     1.779000000     3.571000000     3.763000000
O     4.190000000     1.259000000     1.660000000
H     2.209000000     1.005000000     1.705000000
C     2.837000000    -0.871000000     4.026000000
C     4.157000000    -1.164000000     3.387000000
H     4.677000000    -1.985000000     3.885000000
H     4.854000000    -0.383000000     3.697000000
C     4.255000000    -1.136000000     1.857000000
C     4.438000000    -2.336000000     1.159000000
H     4.385000000    -3.274000000     1.706000000
C     4.325000000     0.001000000     1.123000000
C     4.477000000     0.013000000    -0.282000000
H     4.606000000     0.947000000    -0.824000000
C     4.585000000    -1.214000000    -0.932000000
O     4.546000000    -1.230000000    -2.292000000
C     3.204000000    -1.281000000    -2.875000000
C     3.061000000    -0.313000000    -4.094000000
C     3.681000000     0.910000000    -4.057000000
H     4.376000000     1.114000000    -3.246000000
C     2.182000000    -0.577000000    -5.102000000
H     1.728000000    -1.560000000    -5.198000000
O     2.949000000    -2.656000000    -3.285000000
H     2.569000000    -0.947000000    -2.041000000
C     4.472000000    -2.388000000    -0.222000000
C     4.199000000    -3.685000000    -0.949000000
H     4.626000000    -4.535000000    -0.413000000
H     4.772000000    -3.692000000    -1.878000000
C     2.699000000    -3.874000000    -1.247000000
C     2.184000000    -3.394000000    -2.430000000
C     0.870000000    -3.616000000    -2.743000000
H     0.512000000    -3.378000000    -3.741000000
C     0.031000000    -4.185000000    -1.797000000
O    -1.345000000    -4.104000000    -1.990000000
C    -2.162000000    -3.251000000    -1.156000000
H    -1.419000000    -2.670000000    -0.590000000
C    -3.046000000    -2.459000000    -2.083000000
C    -4.220000000    -1.847000000    -1.647000000
H    -4.602000000    -2.045000000    -0.649000000
C    -2.736000000    -2.223000000    -3.417000000
H    -1.821000000    -2.685000000    -3.779000000
C    -3.420000000    -1.293000000    -4.152000000
O    -2.872000000    -0.814000000    -5.354000000
C    -4.513000000    -0.569000000    -3.661000000
H    -4.921000000     0.225000000    -4.282000000
C    -4.975000000    -0.917000000    -2.392000000
O    -6.112000000    -0.256000000    -1.941000000
C    -6.648000000    -0.595000000    -0.681000000
C    -6.348000000     0.286000000     0.354000000
H    -5.689000000     1.133000000     0.183000000
C    -7.422000000    -1.706000000    -0.434000000
H    -7.598000000    -2.494000000    -1.162000000
C    -7.954000000    -1.888000000     0.845000000
H    -8.436000000    -2.825000000     1.114000000
C    -7.717000000    -0.983000000     1.887000000
H    -7.986000000    -1.240000000     2.909000000
C    -6.907000000     0.130000000     1.648000000
O    -6.570000000     0.996000000     2.669000000
C    -5.220000000     1.281000000     3.027000000
C    -4.896000000     2.584000000     3.464000000
H    -5.583000000     3.397000000     3.243000000
C    -3.621000000     2.921000000     3.925000000
O    -3.476000000     4.254000000     4.133000000
C    -2.342000000     4.918000000     4.623000000
C    -1.187000000     4.975000000     3.829000000
H    -1.172000000     4.463000000     2.870000000
C    -2.300000000     5.461000000     5.876000000
H    -3.170000000     5.345000000     6.518000000
C    -1.201000000     6.294000000     6.184000000
H    -1.324000000     6.803000000     7.137000000
C    -0.119000000     6.395000000     5.323000000
H     0.703000000     7.048000000     5.605000000
C    -0.035000000     5.678000000     4.167000000
O     0.954000000     6.044000000     3.319000000
C     1.437000000     5.186000000     2.395000000
C     1.654000000     5.597000000     1.117000000
H     1.388000000     6.624000000     0.877000000
C     2.166000000     4.809000000     0.144000000
O     2.360000000     5.233000000    -1.179000000
C     3.468000000     4.836000000    -1.913000000
C     3.357000000     3.976000000    -2.983000000
H     2.388000000     3.589000000    -3.287000000
C     4.670000000     5.487000000    -1.685000000
H     4.830000000     6.105000000    -0.805000000
C     5.749000000     5.195000000    -2.498000000
H     6.712000000     5.658000000    -2.300000000
C     5.596000000     4.391000000    -3.590000000
H     6.433000000     4.202000000    -4.256000000
C     4.407000000     3.802000000    -3.875000000
O     4.334000000     3.018000000    -5.019000000
C     3.480000000     1.888000000    -5.056000000
C     2.809000000     1.505000000    -6.200000000
H     2.978000000     2.080000000    -7.107000000
C     2.099000000     0.346000000    -6.165000000
O     1.380000000     0.027000000    -7.266000000
C     0.281000000    -0.814000000    -7.242000000
C     0.114000000    -1.899000000    -8.084000000
H     0.888000000    -2.206000000    -8.783000000
C    -1.065000000    -2.700000000    -7.959000000
H    -1.218000000    -3.508000000    -8.670000000
C    -2.021000000    -2.388000000    -6.994000000
H    -2.981000000    -2.854000000    -6.786000000
C    -1.848000000    -1.268000000    -6.211000000
C    -0.699000000    -0.518000000    -6.308000000
H    -0.541000000     0.390000000    -5.732000000
C    -0.446000000     2.094000000    -0.496000000
H     0.059000000     2.972000000    -0.890000000
C     0.398000000     1.075000000    -0.144000000
H     1.480000000     1.159000000    -0.211000000
C    -0.143000000    -0.151000000     0.346000000
H     0.559000000    -0.975000000     0.678000000
C    -1.547000000    -0.262000000     0.486000000
H    -1.924000000    -1.196000000     0.894000000
C    -2.386000000     0.756000000     0.060000000
H    -3.462000000     0.651000000     0.176000000
C    -1.829000000     1.945000000    -0.396000000
C    -2.772000000     3.142000000    -0.584000000
O    -4.004000000     2.997000000    -0.722000000
O    -2.256000000     4.195000000    -0.806000000
O    -1.636000000     1.880000000    -3.971000000
H    -2.100000000     1.090000000    -4.250000000
H    -1.918000000     2.015000000    -3.066000000
O    -0.381000000     5.682000000    -2.154000000
H    -0.947000000     5.106000000    -1.641000000
H     0.501000000     5.338000000    -2.015000000
O     0.655000000     3.629000000    -5.132000000
H     0.064000000     3.092000000    -4.603000000
H     1.078000000     3.007000000    -5.724000000
O    -7.927000000     5.331000000     0.234000000
H    -8.195000000     5.826000000     1.008000000
H    -8.142000000     5.903000000    -0.503000000
O    -7.619000000     7.447000000    -1.434000000
H    -6.738000000     7.489000000    -1.063000000
H    -7.915000000     8.358000000    -1.453000000
O    -5.237000000     2.720000000    -3.188000000
H    -4.967000000     2.872000000    -2.282000000
H    -6.179000000     2.564000000    -3.135000000
O    -3.143000000     6.288000000     0.648000000
H    -4.064000000     6.041000000     0.735000000
H    -2.713000000     5.498000000     0.322000000
O    -4.868000000     8.399000000    -1.509000000
H    -4.988000000     8.551000000    -2.446000000
H    -4.301000000     7.630000000    -1.461000000
O    -1.579000000     8.514000000     0.984000000
H    -2.030000000     9.199000000     0.490000000
H    -1.931000000     7.696000000     0.634000000
O    -6.951000000     6.084000000     3.136000000
H    -6.427000000     5.579000000     2.514000000
H    -7.605000000     6.526000000     2.594000000
O    -3.658000000     5.715000000    -2.434000000
H    -2.986000000     5.927000000    -3.082000000
H    -3.218000000     5.134000000    -1.814000000
O    -6.051000000     5.399000000    -4.424000000
H    -5.249000000     5.919000000    -4.473000000
H    -5.764000000     4.545000000    -4.100000000
O     1.357000000     6.049000000    -5.693000000
H     0.969000000     5.241000000    -5.357000000
H     1.943000000     6.341000000    -4.996000000
O    -5.368000000     4.837000000     1.159000000
H    -6.125000000     4.724000000     0.584000000
H    -4.660000000     4.370000000     0.715000000
O    -3.619000000     2.768000000    -5.668000000
H    -2.705000000     2.664000000    -5.403000000
H    -4.118000000     2.639000000    -4.861000000
O    -9.477000000     2.804000000    -0.058000000
H    -9.464000000     2.571000000    -0.986000000
H    -8.761000000     3.431000000     0.042000000
O    -0.511000000     8.321000000    -2.740000000
H     0.068000000     8.722000000    -2.093000000
H    -0.630000000     7.423000000    -2.431000000
O    -4.738000000     7.470000000     3.893000000
H    -5.211000000     8.131000000     3.387000000
H    -5.361000000     6.750000000     3.989000000
O    -4.823000000     8.467000000    -4.112000000
H    -4.953000000     9.222000000    -4.686000000
H    -4.480000000     7.784000000    -4.689000000
