215
-1438.95769
C    -2.828000000     1.408000000     4.448000000
H    -1.838000000     1.473000000     4.892000000
C    -3.127000000     0.195000000     3.842000000
C    -4.381000000     0.019000000     3.282000000
H    -4.696000000    -0.928000000     2.850000000
C    -2.100000000    -0.971000000     3.657000000
O    -1.257000000    -1.112000000     4.791000000
H    -1.471000000    -0.682000000     2.803000000
O    -2.728000000    -2.226000000     3.444000000
C    -2.204000000    -3.153000000     2.622000000
C    -2.889000000    -3.315000000     1.414000000
H    -3.797000000    -2.729000000     1.297000000
C    -2.280000000    -4.042000000     0.458000000
O    -2.861000000    -3.817000000    -0.711000000
C    -1.023000000    -4.688000000     0.631000000
C    -0.319000000    -5.487000000    -0.495000000
H     0.298000000    -6.248000000    -0.012000000
C     0.558000000    -4.637000000    -1.348000000
C     1.873000000    -4.399000000    -0.978000000
H     2.188000000    -4.875000000    -0.054000000
H    -1.017000000    -5.980000000    -1.175000000
C    -0.397000000    -4.583000000     1.865000000
H     0.588000000    -5.032000000     1.964000000
C    -1.012000000    -3.847000000     2.870000000
C    -0.359000000    -3.615000000     4.218000000
H     0.342000000    -4.405000000     4.497000000
H    -1.111000000    -3.615000000     5.010000000
C     0.542000000    -2.412000000     4.288000000
C     1.858000000    -2.515000000     3.843000000
H     2.275000000    -3.496000000     3.628000000
C     0.065000000    -1.143000000     4.509000000
C     0.791000000     0.039000000     4.323000000
H     0.249000000     0.974000000     4.447000000
C     2.103000000    -0.082000000     3.950000000
O     2.827000000     1.120000000     3.735000000
C     2.919000000     1.608000000     2.388000000
C     2.595000000     3.108000000     2.359000000
C     2.863000000     3.770000000     1.134000000
H     3.228000000     3.204000000     0.281000000
C     1.951000000     3.799000000     3.315000000
H     1.673000000     3.275000000     4.226000000
O     4.216000000     1.219000000     1.872000000
H     2.139000000     1.101000000     1.801000000
C     2.696000000    -1.374000000     3.752000000
C     4.129000000    -1.465000000     3.232000000
H     4.598000000    -2.419000000     3.483000000
H     4.713000000    -0.717000000     3.772000000
C     4.293000000    -1.281000000     1.711000000
C     4.271000000    -2.420000000     0.886000000
H     4.270000000    -3.413000000     1.328000000
C     4.363000000    -0.007000000     1.174000000
C     4.610000000     0.045000000    -0.169000000
H     4.695000000     1.023000000    -0.636000000
C     4.469000000    -1.070000000    -0.985000000
O     4.449000000    -0.948000000    -2.359000000
C     3.158000000    -0.917000000    -2.977000000
C     2.947000000     0.242000000    -3.993000000
C     3.366000000     1.579000000    -3.762000000
H     3.900000000     1.862000000    -2.858000000
C     2.388000000    -0.095000000    -5.182000000
H     2.052000000    -1.088000000    -5.469000000
O     2.910000000    -2.153000000    -3.617000000
H     2.455000000    -0.819000000    -2.137000000
C     4.322000000    -2.312000000    -0.467000000
C     4.202000000    -3.554000000    -1.364000000
H     4.612000000    -4.433000000    -0.862000000
H     4.777000000    -3.450000000    -2.286000000
C     2.750000000    -3.689000000    -1.769000000
C     2.222000000    -3.098000000    -2.913000000
C     0.843000000    -3.276000000    -3.301000000
H     0.529000000    -2.745000000    -4.196000000
C     0.000000000    -3.963000000    -2.425000000
O    -1.403000000    -3.970000000    -2.600000000
C    -2.099000000    -3.071000000    -1.634000000
H    -1.297000000    -2.509000000    -1.134000000
C    -2.878000000    -1.988000000    -2.446000000
C    -3.938000000    -1.295000000    -1.787000000
H    -4.237000000    -1.663000000    -0.809000000
C    -2.495000000    -1.517000000    -3.727000000
H    -1.595000000    -1.977000000    -4.128000000
C    -3.218000000    -0.547000000    -4.360000000
O    -2.799000000     0.077000000    -5.517000000
C    -4.320000000     0.054000000    -3.752000000
H    -4.801000000     0.901000000    -4.234000000
C    -4.669000000    -0.273000000    -2.468000000
O    -5.810000000     0.299000000    -1.837000000
C    -6.365000000    -0.163000000    -0.694000000
C    -6.226000000     0.550000000     0.482000000
H    -5.581000000     1.423000000     0.550000000
C    -7.214000000    -1.233000000    -0.737000000
H    -7.308000000    -1.676000000    -1.725000000
C    -7.866000000    -1.661000000     0.413000000
H    -8.486000000    -2.552000000     0.358000000
C    -7.717000000    -0.918000000     1.607000000
H    -8.218000000    -1.226000000     2.521000000
C    -6.791000000     0.120000000     1.627000000
O    -6.597000000     0.820000000     2.754000000
C    -5.389000000     1.026000000     3.386000000
C    -5.046000000     2.275000000     3.916000000
H    -5.802000000     3.053000000     3.851000000
C    -3.793000000     2.479000000     4.492000000
O    -3.565000000     3.700000000     5.078000000
C    -2.322000000     4.041000000     5.512000000
C    -1.527000000     4.722000000     4.555000000
H    -1.879000000     5.048000000     3.580000000
C    -1.818000000     3.530000000     6.659000000
H    -2.489000000     2.891000000     7.228000000
C    -0.458000000     3.692000000     6.942000000
H     0.020000000     3.199000000     7.784000000
C     0.348000000     4.476000000     6.049000000
H     1.416000000     4.563000000     6.229000000
C    -0.207000000     5.065000000     4.881000000
O     0.585000000     5.674000000     4.003000000
C     1.446000000     5.106000000     3.121000000
C     1.744000000     5.762000000     1.927000000
H     1.399000000     6.783000000     1.783000000
C     2.471000000     5.106000000     1.009000000
O     2.594000000     5.692000000    -0.254000000
C     3.473000000     5.341000000    -1.175000000
C     3.050000000     5.004000000    -2.462000000
H     2.009000000     5.094000000    -2.762000000
C     4.796000000     5.193000000    -0.853000000
H     5.039000000     5.459000000     0.173000000
C     5.706000000     4.684000000    -1.761000000
H     6.729000000     4.439000000    -1.487000000
C     5.295000000     4.433000000    -3.123000000
H     5.936000000     4.012000000    -3.893000000
C     3.896000000     4.463000000    -3.418000000
O     3.422000000     3.920000000    -4.583000000
C     3.073000000     2.573000000    -4.736000000
C     2.538000000     2.246000000    -5.981000000
H     2.312000000     2.947000000    -6.781000000
C     2.141000000     0.904000000    -6.134000000
O     1.583000000     0.499000000    -7.340000000
C     0.445000000    -0.289000000    -7.290000000
C     0.218000000    -1.365000000    -8.144000000
H     1.028000000    -1.695000000    -8.788000000
C    -0.954000000    -2.083000000    -8.001000000
H    -1.148000000    -2.944000000    -8.636000000
C    -2.077000000    -1.572000000    -7.234000000
H    -2.985000000    -2.169000000    -7.225000000
C    -1.832000000    -0.441000000    -6.387000000
C    -0.560000000     0.150000000    -6.432000000
H    -0.356000000     1.037000000    -5.838000000
C     0.374000000     2.125000000    -1.238000000
H     0.800000000     2.935000000    -1.824000000
C     1.221000000     1.134000000    -0.881000000
H     2.242000000     1.174000000    -1.251000000
C     0.781000000    -0.031000000    -0.186000000
H     1.462000000    -0.875000000     0.052000000
C    -0.562000000    -0.095000000     0.111000000
H    -0.839000000    -0.999000000     0.646000000
C    -1.425000000     1.006000000    -0.141000000
H    -2.487000000     0.869000000     0.046000000
C    -0.918000000     2.155000000    -0.806000000
C    -1.835000000     3.274000000    -1.279000000
O    -3.003000000     2.974000000    -1.573000000
O    -1.419000000     4.306000000    -1.689000000
O    -1.927000000     2.384000000    -4.223000000
H    -2.008000000     2.788000000    -3.359000000
H    -2.096000000     1.454000000    -4.069000000
O    -0.096000000     6.601000000    -1.149000000
H    -0.594000000     5.812000000    -1.363000000
H     0.572000000     6.303000000    -0.532000000
O     0.197000000     4.630000000    -4.814000000
H    -0.224000000     4.610000000    -5.673000000
H     0.353000000     3.710000000    -4.601000000
O    -7.726000000     6.277000000     0.254000000
H    -8.610000000     6.639000000     0.316000000
H    -7.599000000     6.111000000    -0.680000000
O    -7.134000000     5.863000000    -2.432000000
H    -6.910000000     4.960000000    -2.656000000
H    -6.440000000     6.388000000    -2.830000000
O    -5.895000000     3.343000000    -1.686000000
H    -5.027000000     2.948000000    -1.612000000
H    -6.381000000     2.748000000    -2.257000000
O    -2.230000000     6.049000000     1.313000000
H    -2.834000000     5.316000000     1.194000000
H    -2.094000000     6.393000000     0.431000000
O    -4.135000000     8.941000000    -0.250000000
H    -3.824000000     9.838000000    -0.127000000
H    -4.350000000     8.888000000    -1.181000000
O    -2.786000000     7.496000000    -5.947000000
H    -2.614000000     6.600000000    -5.655000000
H    -2.914000000     7.419000000    -6.892000000
O    -5.896000000     5.732000000     2.284000000
H    -5.047000000     5.425000000     1.966000000
H    -6.460000000     5.720000000     1.511000000
O    -2.278000000     5.677000000    -3.597000000
H    -1.481000000     5.607000000    -4.121000000
H    -2.080000000     5.199000000    -2.792000000
O    -1.686000000     8.651000000    -1.902000000
H    -1.064000000     7.926000000    -1.846000000
H    -2.289000000     8.506000000    -1.172000000
O    -4.797000000     5.026000000    -3.890000000
H    -3.942000000     5.427000000    -3.735000000
H    -4.860000000     4.333000000    -3.233000000
O     1.832000000     7.108000000    -6.033000000
H     1.155000000     6.710000000    -5.486000000
H     1.934000000     7.993000000    -5.682000000
O    -0.753000000     4.424000000    -7.341000000
H    -0.046000000     4.778000000    -7.880000000
H    -1.300000000     3.934000000    -7.956000000
O    -4.087000000     4.264000000     0.534000000
H    -5.022000000     4.356000000     0.350000000
H    -3.744000000     3.768000000    -0.209000000
O    -6.018000000     5.383000000    -6.456000000
H    -6.278000000     4.719000000    -7.094000000
H    -5.627000000     4.885000000    -5.738000000
O    -3.642000000     3.012000000    -6.317000000
H    -2.847000000     2.789000000    -5.833000000
H    -4.186000000     3.477000000    -5.682000000
O    -1.034000000     8.312000000     2.419000000
H    -1.223000000     7.398000000     2.208000000
H    -1.688000000     8.545000000     3.079000000
