215
-1458.24369
C     4.646000000    -2.013000000    -2.085000000
H     4.435000000    -3.018000000    -1.730000000
C     4.444000000    -0.921000000    -1.235000000
C     4.474000000     0.362000000    -1.719000000
H     4.081000000     1.148000000    -1.078000000
C     3.967000000    -1.216000000     0.193000000
O     4.153000000    -2.584000000     0.453000000
H     2.873000000    -1.113000000     0.237000000
O     4.644000000    -0.337000000     1.156000000
C     3.935000000     0.220000000     2.243000000
C     3.610000000     1.566000000     2.157000000
H     4.019000000     2.113000000     1.311000000
C     2.832000000     2.151000000     3.089000000
O     2.512000000     3.472000000     2.944000000
C     2.305000000     1.363000000     4.152000000
C     1.440000000     2.090000000     5.184000000
H     1.532000000     1.640000000     6.174000000
C     0.013000000     2.025000000     4.732000000
C    -0.757000000     0.888000000     5.005000000
H    -0.371000000     0.032000000     5.553000000
H     1.670000000     3.148000000     5.329000000
C     2.715000000     0.110000000     4.314000000
H     2.360000000    -0.530000000     5.117000000
C     3.464000000    -0.558000000     3.331000000
C     3.760000000    -2.061000000     3.421000000
H     3.670000000    -2.308000000     4.481000000
H     4.816000000    -2.154000000     3.159000000
C     2.925000000    -2.859000000     2.468000000
C     1.762000000    -3.389000000     3.017000000
H     1.508000000    -3.246000000     4.064000000
C     3.209000000    -3.238000000     1.126000000
C     2.321000000    -4.007000000     0.377000000
H     2.536000000    -4.190000000    -0.673000000
C     1.054000000    -4.416000000     0.881000000
O     0.049000000    -4.793000000    -0.023000000
C    -1.004000000    -3.896000000    -0.373000000
C    -1.261000000    -3.951000000    -1.811000000
C    -2.612000000    -3.841000000    -2.252000000
H    -3.428000000    -3.818000000    -1.534000000
C    -0.261000000    -4.118000000    -2.753000000
H     0.735000000    -4.346000000    -2.382000000
O    -2.174000000    -4.208000000     0.443000000
H    -0.758000000    -2.830000000    -0.258000000
C     0.807000000    -4.172000000     2.247000000
C    -0.472000000    -4.566000000     2.910000000
H    -0.374000000    -4.763000000     3.980000000
H    -0.781000000    -5.503000000     2.444000000
C    -1.602000000    -3.556000000     2.725000000
C    -1.789000000    -2.658000000     3.747000000
H    -1.171000000    -2.753000000     4.636000000
C    -2.285000000    -3.357000000     1.548000000
C    -3.306000000    -2.406000000     1.458000000
H    -3.942000000    -2.418000000     0.576000000
C    -3.501000000    -1.488000000     2.558000000
O    -4.383000000    -0.442000000     2.381000000
C    -3.804000000     0.722000000     1.794000000
C    -4.690000000     1.175000000     0.668000000
C    -5.432000000     0.307000000    -0.128000000
H    -5.676000000    -0.689000000     0.234000000
C    -4.456000000     2.491000000     0.314000000
H    -3.709000000     3.148000000     0.755000000
O    -3.744000000     1.695000000     2.927000000
H    -2.765000000     0.572000000     1.462000000
C    -2.722000000    -1.606000000     3.656000000
C    -2.816000000    -0.552000000     4.733000000
H    -2.557000000    -1.001000000     5.694000000
H    -3.882000000    -0.331000000     4.825000000
C    -2.035000000     0.715000000     4.393000000
C    -2.529000000     1.792000000     3.605000000
C    -1.755000000     2.910000000     3.299000000
H    -2.098000000     3.630000000     2.560000000
C    -0.474000000     2.971000000     3.799000000
O     0.256000000     3.979000000     3.248000000
C     1.253000000     3.671000000     2.281000000
H     0.984000000     2.679000000     1.887000000
C     1.287000000     4.557000000     1.062000000
C     2.529000000     4.882000000     0.540000000
H     3.441000000     4.522000000     1.009000000
C     0.120000000     5.096000000     0.567000000
H    -0.857000000     4.797000000     0.938000000
C     0.223000000     5.901000000    -0.584000000
O    -0.922000000     6.532000000    -1.140000000
C     1.453000000     6.211000000    -1.143000000
H     1.439000000     6.846000000    -2.025000000
C     2.582000000     5.530000000    -0.635000000
O     3.797000000     5.818000000    -1.217000000
C     4.706000000     4.947000000    -1.633000000
C     4.218000000     3.797000000    -2.289000000
H     3.176000000     3.489000000    -2.247000000
C     6.079000000     5.179000000    -1.602000000
H     6.494000000     6.030000000    -1.068000000
C     6.926000000     4.244000000    -2.281000000
H     7.977000000     4.512000000    -2.343000000
C     6.474000000     3.183000000    -2.941000000
H     7.083000000     2.524000000    -3.554000000
C     5.112000000     2.946000000    -2.971000000
O     4.534000000     1.846000000    -3.604000000
C     4.633000000     0.600000000    -3.086000000
C     4.841000000    -0.531000000    -3.928000000
H     5.003000000    -0.486000000    -5.002000000
C     4.888000000    -1.805000000    -3.369000000
O     4.975000000    -2.843000000    -4.298000000
C     4.039000000    -3.892000000    -4.321000000
C     2.701000000    -3.694000000    -4.501000000
H     2.431000000    -2.647000000    -4.605000000
C     4.592000000    -5.220000000    -4.339000000
H     5.666000000    -5.333000000    -4.221000000
C     3.700000000    -6.261000000    -4.159000000
H     4.044000000    -7.263000000    -3.916000000
C     2.348000000    -6.022000000    -4.345000000
H     1.679000000    -6.863000000    -4.186000000
C     1.823000000    -4.763000000    -4.632000000
O     0.478000000    -4.592000000    -4.949000000
C    -0.546000000    -4.263000000    -4.099000000
C    -1.859000000    -4.210000000    -4.483000000
H    -2.101000000    -4.140000000    -5.540000000
C    -2.918000000    -3.982000000    -3.618000000
O    -4.126000000    -3.674000000    -4.150000000
C    -5.213000000    -3.282000000    -3.387000000
C    -5.505000000    -1.899000000    -3.183000000
H    -4.922000000    -1.214000000    -3.792000000
C    -5.905000000    -4.193000000    -2.617000000
H    -5.584000000    -5.231000000    -2.640000000
C    -6.978000000    -3.803000000    -1.786000000
H    -7.529000000    -4.467000000    -1.125000000
C    -7.247000000    -2.434000000    -1.600000000
H    -8.100000000    -2.116000000    -1.006000000
C    -6.450000000    -1.504000000    -2.257000000
O    -6.751000000    -0.118000000    -2.151000000
C    -6.042000000     0.793000000    -1.336000000
C    -5.968000000     2.156000000    -1.652000000
H    -6.437000000     2.679000000    -2.481000000
C    -5.250000000     2.964000000    -0.739000000
O    -5.259000000     4.343000000    -0.918000000
C    -4.382000000     5.265000000    -0.458000000
C    -4.777000000     6.060000000     0.629000000
H    -5.767000000     5.943000000     1.061000000
C    -3.837000000     6.984000000     1.093000000
H    -4.044000000     7.604000000     1.963000000
C    -2.517000000     7.022000000     0.546000000
H    -1.852000000     7.763000000     0.982000000
C    -2.205000000     6.363000000    -0.627000000
C    -3.158000000     5.483000000    -1.128000000
H    -2.821000000     4.803000000    -1.906000000
C    -1.822000000     0.561000000    -2.200000000
H    -2.594000000     0.486000000    -2.961000000
C    -1.712000000    -0.324000000    -1.096000000
H    -2.493000000    -1.074000000    -0.999000000
C    -0.717000000    -0.145000000    -0.130000000
H    -0.805000000    -0.736000000     0.775000000
C     0.294000000     0.773000000    -0.316000000
H     1.064000000     0.853000000     0.447000000
C     0.270000000     1.560000000    -1.460000000
H     1.087000000     2.229000000    -1.718000000
C    -0.830000000     1.489000000    -2.347000000
C    -0.875000000     2.500000000    -3.502000000
O     0.164000000     2.866000000    -4.101000000
O    -1.936000000     2.791000000    -3.957000000
O    -7.291000000     5.474000000    -3.089000000
H    -7.134000000     5.633000000    -2.158000000
H    -6.535000000     4.962000000    -3.375000000
O    -4.164000000     7.138000000    -3.150000000
H    -5.007000000     7.538000000    -2.938000000
H    -3.921000000     6.657000000    -2.359000000
O     3.314000000     2.809000000    -7.189000000
H     3.614000000     3.435000000    -6.531000000
H     2.563000000     3.236000000    -7.601000000
O    -4.026000000     5.315000000    -7.290000000
H    -3.479000000     5.158000000    -8.059000000
H    -3.436000000     5.194000000    -6.547000000
O    -4.173000000     1.704000000    -4.770000000
H    -3.356000000     1.875000000    -4.301000000
H    -3.965000000     1.882000000    -5.687000000
O    -4.644000000     2.498000000    -7.811000000
H    -3.696000000     2.408000000    -7.714000000
H    -4.781000000     3.431000000    -7.976000000
O    -6.991000000     1.826000000    -5.158000000
H    -6.232000000     1.591000000    -4.624000000
H    -6.617000000     2.127000000    -5.986000000
O    -2.709000000     5.036000000    -4.892000000
H    -2.454000000     4.145000000    -4.656000000
H    -1.895000000     5.452000000    -5.175000000
O    -2.193000000     2.494000000    -6.753000000
H    -1.458000000     2.219000000    -7.301000000
H    -1.844000000     2.484000000    -5.862000000
O     0.640000000    -1.545000000    -6.443000000
H     1.244000000    -2.109000000    -6.927000000
H     1.167000000    -0.783000000    -6.201000000
O     1.555000000     1.101000000    -5.613000000
H     2.418000000     1.451000000    -5.835000000
H     1.214000000     1.704000000    -4.953000000
O    -5.136000000     4.261000000    -3.992000000
H    -4.849000000     3.400000000    -4.298000000
H    -4.481000000     4.868000000    -4.336000000
O     0.972000000     5.308000000    -5.074000000
H     0.182000000     5.834000000    -5.198000000
H     0.661000000     4.500000000    -4.666000000
O     0.432000000     1.201000000    -8.732000000
H     0.978000000     0.423000000    -8.844000000
H     0.544000000     1.443000000    -7.813000000
O    -1.504000000     8.601000000    -2.836000000
H    -2.287000000     8.165000000    -3.173000000
H    -0.824000000     8.406000000    -3.482000000
O    -2.276000000    -1.441000000    -5.921000000
H    -1.338000000    -1.341000000    -6.087000000
H    -2.363000000    -1.343000000    -4.973000000
O     3.633000000     4.755000000    -5.315000000
H     3.703000000     4.461000000    -4.407000000
H     2.742000000     5.097000000    -5.388000000
O     1.381000000     4.765000000    -7.726000000
H     0.791000000     5.081000000    -7.042000000
H     2.075000000     5.423000000    -7.767000000
O    -1.326000000     6.508000000    -6.862000000
H    -2.129000000     6.365000000    -7.362000000
H    -0.870000000     7.203000000    -7.337000000
