215
-1439.98813
C    -1.961000000     2.943000000     4.155000000
H    -0.967000000     3.377000000     4.227000000
C    -2.129000000     1.578000000     4.080000000
C    -3.368000000     1.008000000     3.859000000
H    -3.422000000    -0.076000000     3.814000000
C    -0.847000000     0.780000000     4.277000000
O     0.279000000     1.420000000     4.911000000
H    -0.591000000     0.626000000     3.218000000
O    -1.081000000    -0.570000000     4.800000000
C    -0.499000000    -1.636000000     4.215000000
C    -1.339000000    -2.537000000     3.583000000
H    -2.389000000    -2.283000000     3.465000000
C    -0.865000000    -3.588000000     2.773000000
O    -1.688000000    -4.248000000     1.934000000
C     0.472000000    -3.937000000     2.879000000
C     1.044000000    -5.154000000     2.117000000
H     1.898000000    -5.548000000     2.671000000
C     1.503000000    -4.779000000     0.723000000
C     2.753000000    -4.303000000     0.463000000
H     3.565000000    -4.285000000     1.186000000
H     0.316000000    -5.967000000     2.142000000
C     1.288000000    -3.090000000     3.625000000
H     2.358000000    -3.285000000     3.623000000
C     0.842000000    -1.921000000     4.250000000
C     1.788000000    -1.149000000     5.130000000
H     2.662000000    -1.691000000     5.500000000
H     1.240000000    -0.817000000     6.014000000
C     2.315000000     0.066000000     4.374000000
C     3.503000000    -0.085000000     3.681000000
H     4.044000000    -1.019000000     3.810000000
C     1.558000000     1.213000000     4.294000000
C     2.052000000     2.234000000     3.485000000
H     1.488000000     3.163000000     3.480000000
C     3.175000000     2.079000000     2.714000000
O     3.335000000     3.122000000     1.788000000
C     3.099000000     2.815000000     0.430000000
C     2.465000000     3.972000000    -0.270000000
C     2.626000000     4.194000000    -1.581000000
H     3.321000000     3.522000000    -2.077000000
C     1.587000000     4.803000000     0.475000000
H     1.466000000     4.597000000     1.535000000
O     4.317000000     2.399000000    -0.168000000
H     2.295000000     2.065000000     0.452000000
C     3.933000000     0.906000000     2.752000000
C     5.147000000     0.704000000     1.891000000
H     5.739000000    -0.071000000     2.383000000
H     5.757000000     1.602000000     1.770000000
C     4.808000000     0.167000000     0.552000000
C     4.805000000    -1.197000000     0.363000000
H     4.848000000    -1.855000000     1.227000000
C     4.371000000     1.055000000    -0.384000000
C     4.120000000     0.624000000    -1.688000000
H     3.807000000     1.284000000    -2.493000000
C     4.205000000    -0.772000000    -1.977000000
O     3.699000000    -1.196000000    -3.179000000
C     2.314000000    -1.752000000    -3.207000000
C     1.524000000    -1.180000000    -4.393000000
C     1.824000000     0.038000000    -4.938000000
H     2.649000000     0.608000000    -4.519000000
C     0.418000000    -1.884000000    -4.886000000
H     0.075000000    -2.781000000    -4.378000000
O     2.239000000    -3.195000000    -3.053000000
H     1.809000000    -1.341000000    -2.320000000
C     4.513000000    -1.678000000    -0.924000000
C     4.461000000    -3.192000000    -1.097000000
H     5.179000000    -3.625000000    -0.397000000
H     4.756000000    -3.491000000    -2.105000000
C     3.040000000    -3.693000000    -0.810000000
C     2.084000000    -3.735000000    -1.808000000
C     0.832000000    -4.212000000    -1.523000000
H     0.088000000    -4.070000000    -2.302000000
C     0.515000000    -4.752000000    -0.313000000
O    -0.843000000    -4.902000000    -0.207000000
C    -1.562000000    -3.903000000     0.511000000
H    -1.039000000    -2.946000000     0.361000000
C    -2.880000000    -3.642000000    -0.135000000
C    -3.877000000    -3.027000000     0.553000000
H    -3.685000000    -2.645000000     1.552000000
C    -3.091000000    -4.047000000    -1.507000000
H    -2.289000000    -4.571000000    -2.022000000
C    -4.289000000    -3.739000000    -2.127000000
O    -4.498000000    -4.032000000    -3.523000000
C    -5.299000000    -3.275000000    -1.347000000
H    -6.338000000    -3.168000000    -1.649000000
C    -5.131000000    -2.890000000    -0.011000000
O    -6.267000000    -2.325000000     0.588000000
C    -6.366000000    -1.871000000     1.904000000
C    -5.767000000    -0.667000000     2.233000000
H    -5.225000000    -0.149000000     1.447000000
C    -7.195000000    -2.463000000     2.829000000
H    -7.807000000    -3.268000000     2.430000000
C    -7.374000000    -1.934000000     4.126000000
H    -8.125000000    -2.343000000     4.797000000
C    -6.781000000    -0.672000000     4.430000000
H    -7.033000000    -0.113000000     5.328000000
C    -6.025000000    -0.042000000     3.460000000
O    -5.778000000     1.355000000     3.585000000
C    -4.456000000     1.905000000     3.726000000
C    -4.304000000     3.283000000     3.830000000
H    -5.186000000     3.918000000     3.843000000
C    -3.016000000     3.824000000     4.033000000
O    -2.887000000     5.149000000     4.131000000
C    -1.745000000     5.812000000     3.613000000
C    -1.383000000     5.750000000     2.282000000
H    -2.008000000     5.154000000     1.622000000
C    -1.030000000     6.605000000     4.538000000
H    -1.417000000     6.594000000     5.554000000
C     0.081000000     7.286000000     4.100000000
H     0.628000000     7.857000000     4.846000000
C     0.461000000     7.218000000     2.751000000
H     1.358000000     7.754000000     2.453000000
C    -0.333000000     6.557000000     1.802000000
O    -0.045000000     6.662000000     0.498000000
C     0.864000000     5.853000000    -0.148000000
C     1.072000000     6.084000000    -1.482000000
H     0.575000000     6.860000000    -2.057000000
C     1.937000000     5.262000000    -2.199000000
O     1.962000000     5.455000000    -3.521000000
C     2.536000000     4.553000000    -4.380000000
C     1.725000000     3.534000000    -5.007000000
H     0.747000000     3.220000000    -4.653000000
C     3.772000000     4.818000000    -4.885000000
H     4.445000000     5.574000000    -4.490000000
C     4.263000000     4.024000000    -5.926000000
H     5.228000000     4.196000000    -6.396000000
C     3.546000000     2.957000000    -6.502000000
H     3.948000000     2.282000000    -7.254000000
C     2.204000000     2.759000000    -6.094000000
O     1.411000000     1.753000000    -6.626000000
C     1.040000000     0.559000000    -6.002000000
C    -0.014000000    -0.181000000    -6.488000000
H    -0.583000000     0.239000000    -7.314000000
C    -0.321000000    -1.393000000    -5.929000000
O    -1.464000000    -1.886000000    -6.469000000
C    -2.015000000    -3.020000000    -5.910000000
C    -1.743000000    -4.250000000    -6.484000000
H    -1.060000000    -4.291000000    -7.328000000
C    -2.312000000    -5.431000000    -5.985000000
H    -2.060000000    -6.357000000    -6.495000000
C    -3.205000000    -5.339000000    -4.927000000
H    -3.764000000    -6.251000000    -4.730000000
C    -3.575000000    -4.092000000    -4.525000000
C    -2.978000000    -2.922000000    -4.895000000
H    -3.366000000    -1.997000000    -4.476000000
C    -0.895000000     2.077000000    -1.075000000
H    -0.519000000     2.930000000    -1.635000000
C    -0.182000000     0.857000000    -1.135000000
H     0.696000000     0.743000000    -1.765000000
C    -0.563000000    -0.212000000    -0.350000000
H    -0.011000000    -1.189000000    -0.365000000
C    -1.782000000    -0.096000000     0.402000000
H    -2.080000000    -0.987000000     0.949000000
C    -2.477000000     1.060000000     0.407000000
H    -3.346000000     1.214000000     1.043000000
C    -2.078000000     2.207000000    -0.263000000
C    -2.900000000     3.498000000    -0.261000000
O    -4.079000000     3.375000000     0.085000000
O    -2.547000000     4.397000000    -0.983000000
O    -2.122000000     6.652000000    -5.194000000
H    -1.892000000     5.991000000    -4.541000000
H    -2.695000000     6.193000000    -5.807000000
O    -5.302000000     6.157000000     0.754000000
H    -5.180000000     6.856000000     0.111000000
H    -4.974000000     5.370000000     0.317000000
O    -8.651000000     1.400000000    -1.909000000
H    -9.002000000     0.534000000    -2.119000000
H    -7.729000000     1.242000000    -1.706000000
O    -8.991000000     5.392000000     1.346000000
H    -8.360000000     4.755000000     1.010000000
H    -8.524000000     6.227000000     1.322000000
O    -3.519000000     1.351000000    -3.488000000
H    -2.907000000     1.552000000    -2.780000000
H    -3.082000000     1.664000000    -4.279000000
O    -5.535000000     4.732000000    -2.338000000
H    -5.650000000     4.300000000    -3.184000000
H    -4.792000000     4.280000000    -1.938000000
O    -2.674000000     8.207000000     1.730000000
H    -2.184000000     9.028000000     1.680000000
H    -2.051000000     7.577000000     2.091000000
O    -5.430000000     7.514000000    -2.295000000
H    -5.623000000     6.629000000    -1.986000000
H    -4.475000000     7.545000000    -2.352000000
O    -8.485000000     2.045000000     2.045000000
H    -7.819000000     2.412000000     1.462000000
H    -8.657000000     2.740000000     2.680000000
O    -1.296000000     5.273000000    -3.069000000
H    -0.393000000     4.969000000    -2.977000000
H    -1.724000000     5.001000000    -2.257000000
O    -8.232000000     6.073000000    -1.330000000
H    -7.547000000     5.429000000    -1.514000000
H    -7.913000000     6.548000000    -0.562000000
O    -6.866000000     3.486000000     0.363000000
H    -6.022000000     3.403000000     0.807000000
H    -6.769000000     2.964000000    -0.434000000
O    -5.767000000     6.898000000     3.461000000
H    -5.449000000     6.610000000     2.605000000
H    -4.977000000     6.986000000     3.993000000
O    -4.367000000     4.935000000    -5.625000000
H    -5.214000000     5.305000000    -5.376000000
H    -4.339000000     4.085000000    -5.185000000
O    -5.385000000     0.277000000    -5.035000000
H    -4.759000000     0.699000000    -4.447000000
H    -4.887000000     0.110000000    -5.835000000
O    -1.195000000     9.337000000    -2.195000000
H    -0.551000000     9.060000000    -2.846000000
H    -1.616000000     8.525000000    -1.914000000
O    -2.737000000     7.079000000    -1.248000000
H    -2.988000000     6.156000000    -1.295000000
H    -2.284000000     7.162000000    -0.409000000
O    -5.466000000     1.526000000    -1.291000000
H    -5.015000000     1.399000000    -2.126000000
H    -4.855000000     2.043000000    -0.765000000
O    -6.413000000     3.226000000    -4.331000000
H    -6.404000000     2.282000000    -4.177000000
H    -7.339000000     3.442000000    -4.445000000
