215
-1470.66474
C    -1.931000000     3.363000000     2.622000000
H    -0.892000000     3.528000000     2.349000000
C    -2.342000000     2.208000000     3.227000000
C    -3.679000000     1.894000000     3.430000000
H    -4.070000000     1.114000000     4.078000000
C    -1.289000000     1.209000000     3.672000000
O    -0.240000000     2.033000000     4.371000000
H    -0.872000000     0.665000000     2.811000000
O    -1.830000000     0.211000000     4.564000000
C    -1.490000000    -1.058000000     4.356000000
C    -2.390000000    -1.839000000     3.618000000
H    -3.386000000    -1.425000000     3.477000000
C    -1.918000000    -2.965000000     3.048000000
O    -2.760000000    -3.593000000     2.203000000
C    -0.655000000    -3.473000000     3.303000000
C    -0.270000000    -4.833000000     2.667000000
H     0.364000000    -5.336000000     3.400000000
C     0.451000000    -4.725000000     1.336000000
C     1.839000000    -4.567000000     1.220000000
H     2.470000000    -4.529000000     2.104000000
H    -1.144000000    -5.479000000     2.558000000
C     0.216000000    -2.732000000     4.120000000
H     1.248000000    -3.065000000     4.198000000
C    -0.247000000    -1.531000000     4.736000000
C     0.720000000    -0.607000000     5.426000000
H     1.481000000    -1.020000000     6.090000000
H     0.138000000     0.062000000     6.065000000
C     1.435000000     0.272000000     4.406000000
C     2.696000000    -0.096000000     4.000000000
H     3.061000000    -1.090000000     4.248000000
C     1.051000000     1.597000000     4.067000000
C     1.910000000     2.441000000     3.359000000
H     1.646000000     3.452000000     3.057000000
C     3.136000000     1.974000000     2.899000000
O     3.778000000     2.736000000     1.954000000
C     3.608000000     2.445000000     0.573000000
C     3.415000000     3.615000000    -0.274000000
C     3.887000000     3.684000000    -1.589000000
H     4.499000000     2.879000000    -1.986000000
C     2.741000000     4.747000000     0.232000000
H     2.400000000     4.683000000     1.262000000
O     4.687000000     1.626000000     0.123000000
H     2.713000000     1.810000000     0.635000000
C     3.556000000     0.685000000     3.227000000
C     4.877000000     0.085000000     2.638000000
H     5.258000000    -0.666000000     3.333000000
H     5.678000000     0.822000000     2.544000000
C     4.650000000    -0.545000000     1.304000000
C     4.414000000    -1.934000000     1.196000000
H     4.411000000    -2.592000000     2.061000000
C     4.676000000     0.249000000     0.155000000
C     4.381000000    -0.294000000    -1.057000000
H     4.342000000     0.316000000    -1.956000000
C     4.170000000    -1.702000000    -1.189000000
O     3.796000000    -2.289000000    -2.378000000
C     2.389000000    -2.426000000    -2.615000000
C     2.015000000    -2.054000000    -4.000000000
C     2.608000000    -0.972000000    -4.670000000
H     3.346000000    -0.377000000    -4.137000000
C     0.950000000    -2.731000000    -4.650000000
H     0.584000000    -3.617000000    -4.136000000
O     2.077000000    -3.859000000    -2.368000000
H     1.806000000    -1.906000000    -1.841000000
C     4.311000000    -2.509000000    -0.072000000
C     3.955000000    -4.009000000    -0.174000000
H     4.464000000    -4.497000000     0.659000000
H     4.376000000    -4.454000000    -1.078000000
C     2.473000000    -4.351000000    -0.028000000
C     1.608000000    -4.281000000    -1.178000000
C     0.189000000    -4.442000000    -1.090000000
H    -0.460000000    -4.290000000    -1.949000000
C    -0.406000000    -4.679000000     0.196000000
O    -1.758000000    -4.620000000     0.207000000
C    -2.467000000    -3.468000000     0.783000000
H    -1.690000000    -2.694000000     0.705000000
C    -3.679000000    -2.988000000    -0.065000000
C    -4.825000000    -2.465000000     0.550000000
H    -5.022000000    -2.560000000     1.614000000
C    -3.570000000    -2.977000000    -1.502000000
H    -2.650000000    -3.402000000    -1.894000000
C    -4.664000000    -2.606000000    -2.295000000
O    -4.615000000    -2.722000000    -3.680000000
C    -5.793000000    -2.124000000    -1.656000000
H    -6.671000000    -1.799000000    -2.208000000
C    -5.866000000    -1.992000000    -0.283000000
O    -7.067000000    -1.492000000     0.275000000
C    -7.175000000    -0.672000000     1.396000000
C    -6.586000000     0.598000000     1.448000000
H    -5.918000000     0.951000000     0.666000000
C    -7.888000000    -1.232000000     2.483000000
H    -8.299000000    -2.238000000     2.527000000
C    -8.032000000    -0.462000000     3.668000000
H    -8.523000000    -0.784000000     4.582000000
C    -7.453000000     0.809000000     3.731000000
H    -7.320000000     1.314000000     4.684000000
C    -6.779000000     1.338000000     2.653000000
O    -6.057000000     2.497000000     2.920000000
C    -4.653000000     2.752000000     2.905000000
C    -4.240000000     3.968000000     2.286000000
H    -5.023000000     4.662000000     1.988000000
C    -2.896000000     4.366000000     2.191000000
O    -2.524000000     5.489000000     1.480000000
C    -1.371000000     6.121000000     1.684000000
C    -0.398000000     6.178000000     0.666000000
H    -0.448000000     5.444000000    -0.135000000
C    -1.140000000     6.920000000     2.851000000
H    -1.911000000     7.012000000     3.612000000
C     0.045000000     7.671000000     2.954000000
H     0.237000000     8.302000000     3.818000000
C     0.957000000     7.702000000     1.919000000
H     1.851000000     8.311000000     2.023000000
C     0.721000000     6.920000000     0.767000000
O     1.681000000     6.909000000    -0.251000000
C     2.379000000     5.832000000    -0.640000000
C     2.758000000     5.741000000    -1.992000000
H     2.375000000     6.546000000    -2.614000000
C     3.438000000     4.667000000    -2.442000000
O     3.788000000     4.560000000    -3.796000000
C     4.208000000     3.428000000    -4.481000000
C     3.236000000     2.619000000    -5.155000000
H     2.168000000     2.799000000    -5.054000000
C     5.554000000     3.172000000    -4.656000000
H     6.215000000     3.873000000    -4.153000000
C     5.934000000     2.035000000    -5.390000000
H     6.972000000     1.719000000    -5.449000000
C     4.973000000     1.225000000    -6.014000000
H     5.197000000     0.380000000    -6.659000000
C     3.634000000     1.561000000    -5.985000000
O     2.677000000     0.692000000    -6.447000000
C     2.132000000    -0.477000000    -5.880000000
C     1.086000000    -1.143000000    -6.483000000
H     0.743000000    -0.761000000    -7.441000000
C     0.447000000    -2.174000000    -5.862000000
O    -0.675000000    -2.717000000    -6.485000000
C    -1.586000000    -3.466000000    -5.674000000
C    -1.372000000    -4.830000000    -5.342000000
H    -0.569000000    -5.433000000    -5.758000000
C    -2.298000000    -5.396000000    -4.500000000
H    -2.150000000    -6.437000000    -4.222000000
C    -3.372000000    -4.744000000    -4.052000000
H    -4.077000000    -5.322000000    -3.460000000
C    -3.566000000    -3.393000000    -4.307000000
C    -2.612000000    -2.715000000    -5.068000000
H    -2.877000000    -1.706000000    -5.375000000
C    -0.270000000     1.991000000    -1.488000000
H    -0.273000000     2.736000000    -2.279000000
C     0.858000000     1.198000000    -1.442000000
H     1.729000000     1.364000000    -2.070000000
C     0.889000000     0.107000000    -0.600000000
H     1.731000000    -0.508000000    -0.490000000
C    -0.228000000    -0.235000000     0.189000000
H    -0.213000000    -1.097000000     0.850000000
C    -1.356000000     0.623000000     0.102000000
H    -2.217000000     0.406000000     0.729000000
C    -1.420000000     1.686000000    -0.754000000
C    -2.678000000     2.456000000    -0.956000000
O    -3.746000000     1.864000000    -0.703000000
O    -2.683000000     3.468000000    -1.645000000
O    -8.255000000     3.780000000    -0.228000000
H    -8.518000000     2.964000000    -0.654000000
H    -7.298000000     3.761000000    -0.247000000
O    -5.035000000     1.586000000    -6.852000000
H    -4.270000000     1.508000000    -6.283000000
H    -5.648000000     0.929000000    -6.522000000
O    -4.485000000     3.366000000    -3.533000000
H    -3.768000000     3.420000000    -2.902000000
H    -5.277000000     3.357000000    -2.996000000
O    -3.472000000     6.116000000    -1.134000000
H    -3.193000000     6.092000000    -0.219000000
H    -3.294000000     5.234000000    -1.462000000
O    -5.865000000     7.704000000    -0.714000000
H    -4.963000000     7.625000000    -1.026000000
H    -5.817000000     7.476000000     0.214000000
O    -0.778000000     4.743000000     5.357000000
H    -0.895000000     3.952000000     4.831000000
H    -1.593000000     4.825000000     5.852000000
O    -1.631000000     6.214000000    -5.468000000
H    -2.433000000     5.717000000    -5.635000000
H    -1.292000000     6.421000000    -6.339000000
O    -2.677000000     1.703000000    -5.120000000
H    -3.149000000     2.354000000    -4.600000000
H    -2.562000000     0.961000000    -4.527000000
O    -3.873000000     4.672000000    -5.776000000
H    -4.022000000     4.335000000    -4.892000000
H    -4.159000000     3.964000000    -6.353000000
O    -6.045000000     0.743000000    -2.164000000
H    -5.450000000     0.207000000    -2.689000000
H    -5.468000000     1.291000000    -1.632000000
O    -9.317000000     5.190000000    -2.192000000
H    -8.783000000     5.979000000    -2.099000000
H    -8.950000000     4.577000000    -1.556000000
O    -5.457000000     3.744000000    -0.610000000
H    -4.915000000     4.495000000    -0.372000000
H    -4.858000000     2.998000000    -0.585000000
O     0.471000000     8.090000000    -3.841000000
H     0.593000000     7.704000000    -2.974000000
H     0.524000000     7.349000000    -4.443000000
O    -1.005000000     1.543000000    -7.242000000
H    -0.973000000     2.399000000    -7.670000000
H    -1.403000000     1.716000000    -6.389000000
O    -2.868000000     8.089000000    -3.210000000
H    -2.985000000     7.285000000    -2.703000000
H    -2.344000000     7.822000000    -3.965000000
O    -0.855000000     5.140000000    -2.833000000
H    -1.297000000     5.210000000    -3.679000000
H    -1.409000000     4.551000000    -2.321000000
O    -6.306000000    -0.665000000    -5.341000000
H    -6.121000000    -1.294000000    -4.644000000
H    -7.202000000    -0.864000000    -5.613000000
O    -2.512000000    -0.116000000    -3.119000000
H    -2.451000000     0.225000000    -2.226000000
H    -2.049000000    -0.953000000    -3.088000000
O    -8.375000000     1.139000000    -1.187000000
H    -8.942000000     0.953000000    -1.935000000
H    -7.496000000     0.914000000    -1.491000000
