215
-1421.88581
C    -1.756000000     3.441000000     3.106000000
H    -0.754000000     3.862000000     3.141000000
C    -2.044000000     2.240000000     3.676000000
C    -3.342000000     1.882000000     3.696000000
H    -3.677000000     0.977000000     4.196000000
C    -0.884000000     1.311000000     4.142000000
O     0.290000000     1.966000000     4.752000000
H    -0.442000000     0.927000000     3.211000000
O    -1.329000000     0.258000000     5.041000000
C    -0.942000000    -0.987000000     4.555000000
C    -1.857000000    -1.713000000     3.839000000
H    -2.867000000    -1.313000000     3.815000000
C    -1.375000000    -2.881000000     3.197000000
O    -2.298000000    -3.556000000     2.453000000
C    -0.070000000    -3.355000000     3.318000000
C     0.326000000    -4.742000000     2.749000000
H     1.091000000    -5.237000000     3.350000000
C     0.722000000    -4.542000000     1.320000000
C     2.061000000    -4.280000000     1.076000000
H     2.679000000    -4.171000000     1.963000000
H    -0.528000000    -5.421000000     2.711000000
C     0.814000000    -2.642000000     4.107000000
H     1.859000000    -2.919000000     4.218000000
C     0.405000000    -1.494000000     4.721000000
C     1.417000000    -0.686000000     5.504000000
H     2.258000000    -1.322000000     5.789000000
H     0.912000000    -0.263000000     6.375000000
C     2.042000000     0.335000000     4.593000000
C     3.232000000     0.009000000     3.912000000
H     3.678000000    -0.945000000     4.179000000
C     1.542000000     1.628000000     4.384000000
C     2.119000000     2.516000000     3.461000000
H     1.635000000     3.469000000     3.263000000
C     3.227000000     2.093000000     2.690000000
O     3.749000000     2.923000000     1.734000000
C     3.535000000     2.588000000     0.356000000
C     3.266000000     3.799000000    -0.520000000
C     3.581000000     3.794000000    -1.842000000
H     4.033000000     2.880000000    -2.218000000
C     2.549000000     4.922000000    -0.041000000
H     2.253000000     4.868000000     1.004000000
O     4.671000000     1.902000000    -0.172000000
H     2.678000000     1.898000000     0.336000000
C     3.780000000     0.851000000     3.025000000
C     5.018000000     0.407000000     2.260000000
H     5.512000000    -0.252000000     2.976000000
H     5.757000000     1.192000000     2.087000000
C     4.682000000    -0.296000000     0.958000000
C     4.425000000    -1.684000000     0.841000000
H     4.682000000    -2.309000000     1.693000000
C     4.644000000     0.505000000    -0.228000000
C     4.211000000    -0.083000000    -1.428000000
H     3.953000000     0.534000000    -2.285000000
C     3.983000000    -1.431000000    -1.505000000
O     3.424000000    -1.898000000    -2.764000000
C     2.025000000    -2.258000000    -2.737000000
C     1.285000000    -1.738000000    -4.001000000
C     1.564000000    -0.502000000    -4.458000000
H     2.384000000    -0.015000000    -3.936000000
C     0.284000000    -2.467000000    -4.599000000
H     0.121000000    -3.496000000    -4.287000000
O     1.929000000    -3.653000000    -2.499000000
H     1.535000000    -1.622000000    -1.985000000
C     4.122000000    -2.265000000    -0.381000000
C     3.975000000    -3.751000000    -0.447000000
H     4.631000000    -4.230000000     0.283000000
H     4.335000000    -4.138000000    -1.402000000
C     2.493000000    -4.076000000    -0.211000000
C     1.566000000    -4.150000000    -1.316000000
C     0.221000000    -4.404000000    -1.050000000
H    -0.468000000    -4.547000000    -1.879000000
C    -0.217000000    -4.638000000     0.308000000
O    -1.568000000    -4.718000000     0.534000000
C    -2.209000000    -3.508000000     0.950000000
H    -1.477000000    -2.744000000     0.649000000
C    -3.420000000    -3.223000000     0.213000000
C    -4.461000000    -2.515000000     0.744000000
H    -4.241000000    -2.076000000     1.713000000
C    -3.452000000    -3.724000000    -1.123000000
H    -2.644000000    -4.231000000    -1.643000000
C    -4.615000000    -3.483000000    -1.855000000
O    -4.683000000    -3.943000000    -3.190000000
C    -5.663000000    -2.780000000    -1.302000000
H    -6.569000000    -2.573000000    -1.866000000
C    -5.660000000    -2.316000000    -0.018000000
O    -6.728000000    -1.696000000     0.500000000
C    -6.685000000    -1.127000000     1.743000000
C    -6.094000000     0.150000000     1.829000000
H    -5.912000000     0.711000000     0.916000000
C    -6.871000000    -1.884000000     2.897000000
H    -7.083000000    -2.948000000     2.823000000
C    -6.746000000    -1.231000000     4.095000000
H    -6.947000000    -1.764000000     5.021000000
C    -6.390000000     0.141000000     4.182000000
H    -6.342000000     0.665000000     5.133000000
C    -5.970000000     0.813000000     3.030000000
O    -5.677000000     2.109000000     3.059000000
C    -4.356000000     2.658000000     3.071000000
C    -4.044000000     3.797000000     2.374000000
H    -4.822000000     4.451000000     1.990000000
C    -2.754000000     4.220000000     2.420000000
O    -2.460000000     5.400000000     1.705000000
C    -1.281000000     6.016000000     1.845000000
C    -0.444000000     6.039000000     0.763000000
H    -0.638000000     5.418000000    -0.108000000
C    -1.012000000     6.842000000     2.955000000
H    -1.775000000     6.947000000     3.723000000
C    -0.044000000     7.889000000     2.813000000
H     0.074000000     8.577000000     3.646000000
C     0.796000000     7.874000000     1.768000000
H     1.496000000     8.678000000     1.552000000
C     0.610000000     6.903000000     0.751000000
O     1.458000000     6.953000000    -0.359000000
C     2.260000000     5.971000000    -0.851000000
C     2.555000000     5.933000000    -2.163000000
H     2.262000000     6.773000000    -2.788000000
C     3.252000000     4.862000000    -2.706000000
O     3.699000000     4.931000000    -4.027000000
C     3.584000000     3.854000000    -4.854000000
C     2.350000000     3.295000000    -4.978000000
H     1.537000000     3.561000000    -4.307000000
C     4.705000000     3.362000000    -5.380000000
H     5.661000000     3.830000000    -5.162000000
C     4.624000000     2.213000000    -6.169000000
H     5.527000000     1.850000000    -6.653000000
C     3.374000000     1.571000000    -6.261000000
H     3.274000000     0.752000000    -6.969000000
C     2.220000000     2.032000000    -5.642000000
O     1.023000000     1.466000000    -5.858000000
C     0.752000000     0.095000000    -5.502000000
C    -0.293000000    -0.603000000    -6.014000000
H    -0.812000000    -0.149000000    -6.854000000
C    -0.483000000    -1.947000000    -5.618000000
O    -1.347000000    -2.710000000    -6.341000000
C    -2.051000000    -3.717000000    -5.824000000
C    -1.737000000    -5.056000000    -5.939000000
H    -0.955000000    -5.439000000    -6.589000000
C    -2.484000000    -6.015000000    -5.303000000
H    -2.327000000    -7.068000000    -5.523000000
C    -3.420000000    -5.670000000    -4.370000000
H    -3.969000000    -6.337000000    -3.709000000
C    -3.644000000    -4.320000000    -4.109000000
C    -2.973000000    -3.356000000    -4.841000000
H    -3.171000000    -2.287000000    -4.841000000
C    -0.551000000     2.009000000    -1.040000000
H     0.054000000     2.415000000    -1.846000000
C    -0.023000000     0.992000000    -0.314000000
H     1.046000000     0.884000000    -0.476000000
C    -0.785000000     0.313000000     0.580000000
H    -0.248000000    -0.410000000     1.187000000
C    -2.162000000     0.627000000     0.672000000
H    -2.759000000     0.185000000     1.466000000
C    -2.755000000     1.696000000    -0.087000000
H    -3.759000000     2.045000000     0.143000000
C    -1.918000000     2.433000000    -0.930000000
C    -2.499000000     3.542000000    -1.768000000
O    -3.727000000     3.546000000    -1.926000000
O    -1.712000000     4.197000000    -2.501000000
O    -4.063000000     7.214000000    -3.091000000
H    -3.915000000     6.633000000    -3.838000000
H    -3.204000000     7.297000000    -2.678000000
O    -7.869000000     0.339000000    -1.011000000
H    -7.324000000    -0.431000000    -0.847000000
H    -7.276000000     0.969000000    -1.421000000
O    -8.553000000     5.282000000    -1.281000000
H    -8.818000000     5.014000000    -2.161000000
H    -7.599000000     5.206000000    -1.284000000
O    -4.276000000     0.537000000    -6.740000000
H    -4.140000000     0.723000000    -5.811000000
H    -4.488000000    -0.396000000    -6.769000000
O    -4.034000000     4.515000000    -4.690000000
H    -3.730000000     4.489000000    -3.782000000
H    -3.251000000     4.334000000    -5.209000000
O    -4.018000000     7.738000000     0.404000000
H    -3.122000000     7.592000000     0.709000000
H    -4.304000000     6.882000000     0.084000000
O     0.620000000     4.945000000    -6.946000000
H     0.514000000     5.108000000    -7.883000000
H     1.562000000     5.020000000    -6.795000000
O    -3.842000000     1.210000000    -4.310000000
H    -3.480000000     2.082000000    -4.149000000
H    -3.211000000     0.612000000    -3.910000000
O    -4.900000000     3.674000000    -7.418000000
H    -4.975000000     4.328000000    -6.724000000
H    -4.492000000     2.919000000    -6.993000000
O    -6.676000000     5.868000000    -5.329000000
H    -5.900000000     5.393000000    -5.030000000
H    -7.003000000     6.308000000    -4.544000000
O    -5.864000000     5.089000000    -1.998000000
H    -5.410000000     5.835000000    -2.390000000
H    -5.175000000     4.443000000    -1.844000000
O    -1.718000000     7.612000000    -1.872000000
H    -1.097000000     7.845000000    -2.563000000
H    -1.674000000     6.657000000    -1.823000000
O    -1.770000000     3.865000000    -5.967000000
H    -0.944000000     4.002000000    -6.432000000
H    -2.154000000     3.093000000    -6.383000000
O    -4.478000000    10.085000000    -1.933000000
H    -4.334000000     9.220000000    -1.550000000
H    -3.665000000    10.280000000    -2.399000000
O    -0.821000000     7.895000000    -4.694000000
H    -0.458000000     7.014000000    -4.610000000
H    -1.535000000     7.801000000    -5.325000000
O    -1.257000000    10.202000000     0.182000000
H    -1.455000000    10.205000000     1.119000000
H    -1.114000000     9.280000000    -0.029000000
O    -0.256000000     5.493000000    -4.159000000
H     0.169000000     4.963000000    -4.833000000
H    -0.750000000     4.863000000    -3.634000000
O    -2.028000000    -0.206000000    -2.839000000
H    -1.496000000    -0.989000000    -2.693000000
H    -2.010000000     0.255000000    -2.000000000
O    -5.766000000     1.537000000    -2.123000000
H    -5.513000000     1.137000000    -2.955000000
H    -5.057000000     2.151000000    -1.928000000
