215
-1487.50267
C    -0.691000000     4.219000000     3.329000000
H     0.351000000     4.525000000     3.357000000
C    -1.024000000     2.898000000     3.537000000
C    -2.368000000     2.545000000     3.567000000
H    -2.674000000     1.526000000     3.791000000
C     0.031000000     1.818000000     3.856000000
O     1.321000000     2.404000000     4.261000000
H     0.239000000     1.249000000     2.938000000
O    -0.399000000     0.862000000     4.883000000
C    -0.187000000    -0.464000000     4.769000000
C    -1.277000000    -1.234000000     4.395000000
H    -2.272000000    -0.803000000     4.323000000
C    -1.075000000    -2.455000000     3.774000000
O    -2.117000000    -3.129000000     3.303000000
C     0.181000000    -3.066000000     3.844000000
C     0.429000000    -4.438000000     3.325000000
H     1.358000000    -4.847000000     3.727000000
C     0.534000000    -4.520000000     1.783000000
C     1.826000000    -4.545000000     1.195000000
H     2.697000000    -4.537000000     1.845000000
H    -0.402000000    -5.056000000     3.671000000
C     1.260000000    -2.306000000     4.274000000
H     2.261000000    -2.727000000     4.239000000
C     1.096000000    -1.011000000     4.690000000
C     2.285000000    -0.207000000     5.119000000
H     2.991000000    -0.961000000     5.474000000
H     1.961000000     0.482000000     5.902000000
C     2.817000000     0.625000000     3.925000000
C     3.844000000     0.152000000     3.154000000
H     4.312000000    -0.798000000     3.396000000
C     2.345000000     1.892000000     3.557000000
C     2.769000000     2.629000000     2.484000000
H     2.269000000     3.567000000     2.258000000
C     3.657000000     2.012000000     1.606000000
O     3.927000000     2.651000000     0.384000000
C     3.399000000     2.033000000    -0.820000000
C     2.821000000     3.074000000    -1.793000000
C     2.373000000     2.677000000    -3.088000000
H     2.641000000     1.689000000    -3.455000000
C     2.477000000     4.344000000    -1.300000000
H     2.744000000     4.577000000    -0.272000000
O     4.411000000     1.182000000    -1.471000000
H     2.604000000     1.331000000    -0.530000000
C     4.247000000     0.787000000     1.925000000
C     5.210000000     0.099000000     1.055000000
H     5.838000000    -0.481000000     1.734000000
H     5.844000000     0.785000000     0.489000000
C     4.605000000    -0.800000000    -0.029000000
C     4.393000000    -2.157000000     0.155000000
H     4.846000000    -2.709000000     0.974000000
C     4.194000000    -0.203000000    -1.238000000
C     3.668000000    -0.978000000    -2.250000000
H     3.434000000    -0.494000000    -3.195000000
C     3.404000000    -2.344000000    -2.043000000
O     2.775000000    -3.083000000    -3.003000000
C     1.344000000    -3.197000000    -2.914000000
C     0.777000000    -2.931000000    -4.199000000
C     1.475000000    -2.196000000    -5.167000000
H     2.558000000    -2.116000000    -5.117000000
C    -0.625000000    -2.979000000    -4.386000000
H    -1.210000000    -3.453000000    -3.602000000
O     1.002000000    -4.454000000    -2.333000000
H     0.907000000    -2.418000000    -2.272000000
C     3.830000000    -2.948000000    -0.868000000
C     3.453000000    -4.456000000    -0.645000000
H     4.143000000    -4.889000000     0.082000000
H     3.593000000    -5.022000000    -1.568000000
C     2.014000000    -4.590000000    -0.138000000
C     0.863000000    -4.518000000    -1.019000000
C    -0.417000000    -4.525000000    -0.464000000
H    -1.289000000    -4.564000000    -1.112000000
C    -0.599000000    -4.543000000     0.930000000
O    -1.896000000    -4.550000000     1.352000000
C    -2.268000000    -3.230000000     1.831000000
H    -1.623000000    -2.492000000     1.331000000
C    -3.730000000    -2.919000000     1.441000000
C    -4.635000000    -2.461000000     2.351000000
H    -4.443000000    -2.467000000     3.421000000
C    -4.066000000    -2.927000000     0.117000000
H    -3.455000000    -3.407000000    -0.643000000
C    -5.281000000    -2.303000000    -0.312000000
O    -5.565000000    -2.271000000    -1.681000000
C    -6.197000000    -1.729000000     0.625000000
H    -7.091000000    -1.193000000     0.316000000
C    -5.874000000    -1.923000000     1.955000000
O    -6.643000000    -1.237000000     2.877000000
C    -6.027000000    -0.271000000     3.659000000
C    -5.754000000     1.011000000     3.112000000
H    -5.921000000     1.253000000     2.066000000
C    -5.913000000    -0.469000000     5.067000000
H    -6.179000000    -1.466000000     5.409000000
C    -5.337000000     0.464000000     5.879000000
H    -5.113000000     0.301000000     6.930000000
C    -4.925000000     1.694000000     5.296000000
H    -4.375000000     2.436000000     5.869000000
C    -5.121000000     1.961000000     3.939000000
O    -4.695000000     3.144000000     3.346000000
C    -3.342000000     3.522000000     3.368000000
C    -2.982000000     4.793000000     2.956000000
H    -3.730000000     5.465000000     2.544000000
C    -1.650000000     5.151000000     2.851000000
O    -1.300000000     6.427000000     2.357000000
C    -0.115000000     6.627000000     1.680000000
C     0.050000000     6.434000000     0.300000000
H    -0.720000000     5.953000000    -0.297000000
C     0.967000000     7.266000000     2.426000000
H     0.842000000     7.510000000     3.478000000
C     2.130000000     7.614000000     1.780000000
H     2.911000000     8.139000000     2.324000000
C     2.261000000     7.334000000     0.409000000
H     3.221000000     7.589000000    -0.032000000
C     1.234000000     6.843000000    -0.346000000
O     1.318000000     6.519000000    -1.674000000
C     1.743000000     5.221000000    -2.067000000
C     1.349000000     4.860000000    -3.376000000
H     0.754000000     5.546000000    -3.973000000
C     1.751000000     3.642000000    -3.923000000
O     1.403000000     3.347000000    -5.170000000
C     2.061000000     2.439000000    -5.951000000
C     1.473000000     1.213000000    -6.240000000
H     0.485000000     0.891000000    -5.922000000
C     3.393000000     2.727000000    -6.274000000
H     3.781000000     3.710000000    -6.018000000
C     4.173000000     1.797000000    -6.940000000
H     5.217000000     1.955000000    -7.200000000
C     3.537000000     0.599000000    -7.274000000
H     4.200000000    -0.163000000    -7.676000000
C     2.216000000     0.284000000    -6.975000000
O     1.729000000    -0.960000000    -7.143000000
C     0.860000000    -1.636000000    -6.225000000
C    -0.552000000    -1.733000000    -6.448000000
H    -1.002000000    -1.311000000    -7.343000000
C    -1.286000000    -2.445000000    -5.534000000
O    -2.690000000    -2.503000000    -5.625000000
C    -3.474000000    -3.141000000    -4.673000000
C    -3.785000000    -4.522000000    -4.752000000
H    -3.380000000    -5.066000000    -5.602000000
C    -4.587000000    -5.176000000    -3.809000000
H    -4.738000000    -6.252000000    -3.772000000
C    -5.051000000    -4.391000000    -2.765000000
H    -5.579000000    -4.934000000    -1.984000000
C    -4.863000000    -3.017000000    -2.707000000
C    -4.114000000    -2.332000000    -3.626000000
H    -4.002000000    -1.251000000    -3.619000000
C    -0.474000000     0.307000000    -1.801000000
H    -0.023000000     0.377000000    -2.788000000
C     0.304000000    -0.002000000    -0.638000000
H     1.341000000    -0.285000000    -0.798000000
C    -0.292000000     0.062000000     0.637000000
H     0.257000000    -0.181000000     1.495000000
C    -1.630000000     0.228000000     0.785000000
H    -2.111000000     0.167000000     1.758000000
C    -2.406000000     0.629000000    -0.315000000
H    -3.467000000     0.765000000    -0.124000000
C    -1.844000000     0.600000000    -1.639000000
C    -2.694000000     1.048000000    -2.827000000
O    -3.680000000     1.768000000    -2.714000000
O    -2.243000000     0.833000000    -3.948000000
O    -5.687000000     3.735000000     0.693000000
H    -4.762000000     3.913000000     0.522000000
H    -5.770000000     3.798000000     1.645000000
O    -4.575000000    -1.616000000    -7.826000000
H    -3.920000000    -1.282000000    -7.213000000
H    -4.282000000    -1.305000000    -8.683000000
O    -7.164000000     3.910000000    -5.556000000
H    -7.869000000     3.927000000    -4.910000000
H    -7.588000000     4.149000000    -6.380000000
O    -8.159000000     0.961000000    -3.330000000
H    -7.686000000     1.218000000    -2.538000000
H    -8.099000000     1.724000000    -3.904000000
O    -4.943000000     5.956000000    -4.202000000
H    -4.792000000     5.243000000    -3.582000000
H    -5.858000000     5.855000000    -4.465000000
O    -3.076000000     0.085000000    -9.214000000
H    -2.277000000     0.115000000    -9.740000000
H    -2.825000000     0.468000000    -8.374000000
O    -1.705000000     6.347000000    -3.783000000
H    -1.677000000     5.390000000    -3.792000000
H    -1.897000000     6.590000000    -4.689000000
O    -5.210000000     0.913000000    -5.076000000
H    -4.822000000     1.458000000    -5.759000000
H    -4.817000000     1.231000000    -4.263000000
O    -2.810000000     0.953000000    -6.651000000
H    -3.173000000     1.838000000    -6.662000000
H    -2.458000000     0.850000000    -5.767000000
O    -4.615000000     4.137000000    -2.216000000
H    -4.260000000     4.293000000    -1.341000000
H    -4.343000000     3.244000000    -2.429000000
O    -3.291000000     4.910000000     0.002000000
H    -3.104000000     5.832000000    -0.177000000
H    -2.560000000     4.619000000     0.548000000
O    -0.714000000     3.329000000    -0.018000000
H     0.176000000     3.441000000    -0.352000000
H    -0.777000000     2.396000000     0.186000000
O    -8.354000000    -1.495000000    -2.352000000
H    -8.248000000    -0.633000000    -2.755000000
H    -7.552000000    -1.622000000    -1.845000000
O    -6.844000000     5.438000000    -1.312000000
H    -6.656000000     5.465000000    -0.373000000
H    -6.063000000     5.046000000    -1.701000000
O    -1.708000000     3.578000000    -4.363000000
H    -2.242000000     2.924000000    -3.913000000
H    -0.973000000     3.081000000    -4.722000000
O    -1.579000000     4.974000000    -7.231000000
H    -1.688000000     4.499000000    -6.407000000
H    -2.223000000     4.581000000    -7.820000000
O    -6.728000000    -1.290000000    -5.639000000
H    -6.533000000    -0.641000000    -4.963000000
H    -5.896000000    -1.416000000    -6.097000000
O    -4.093000000     3.358000000    -5.986000000
H    -5.022000000     3.470000000    -5.787000000
H    -3.639000000     3.697000000    -5.215000000
O    -6.244000000     1.480000000    -1.302000000
H    -6.261000000     2.401000000    -1.042000000
H    -5.379000000     1.357000000    -1.693000000
