215
-1445.65819
C    -0.765000000     4.105000000     2.974000000
H     0.306000000     4.105000000     2.785000000
C    -1.281000000     2.921000000     3.501000000
C    -2.707000000     2.754000000     3.561000000
H    -3.158000000     1.874000000     4.012000000
C    -0.321000000     1.757000000     3.747000000
O     0.926000000     2.329000000     4.247000000
H    -0.171000000     1.274000000     2.770000000
O    -0.903000000     0.824000000     4.677000000
C    -0.821000000    -0.503000000     4.422000000
C    -1.860000000    -1.181000000     3.773000000
H    -2.841000000    -0.714000000     3.759000000
C    -1.675000000    -2.493000000     3.333000000
O    -2.753000000    -3.072000000     2.690000000
C    -0.478000000    -3.185000000     3.546000000
C    -0.340000000    -4.585000000     3.073000000
H     0.302000000    -5.179000000     3.727000000
C     0.019000000    -4.718000000     1.598000000
C     1.370000000    -4.745000000     1.271000000
H     2.028000000    -4.695000000     2.135000000
H    -1.275000000    -5.110000000     3.284000000
C     0.608000000    -2.435000000     4.044000000
H     1.606000000    -2.865000000     4.058000000
C     0.452000000    -1.091000000     4.506000000
C     1.565000000    -0.378000000     5.298000000
H     2.281000000    -1.055000000     5.769000000
H     1.170000000     0.210000000     6.129000000
C     2.444000000     0.391000000     4.318000000
C     3.505000000    -0.196000000     3.705000000
H     3.743000000    -1.244000000     3.866000000
C     2.038000000     1.689000000     3.861000000
C     2.808000000     2.372000000     2.917000000
H     2.537000000     3.359000000     2.550000000
C     3.863000000     1.736000000     2.297000000
O     4.317000000     2.351000000     1.157000000
C     3.911000000     1.891000000    -0.143000000
C     3.550000000     3.134000000    -1.021000000
C     3.163000000     2.894000000    -2.342000000
H     3.447000000     1.942000000    -2.784000000
C     3.435000000     4.438000000    -0.564000000
H     3.795000000     4.700000000     0.427000000
O     4.897000000     0.970000000    -0.664000000
H     3.056000000     1.216000000     0.008000000
C     4.136000000     0.418000000     2.643000000
C     5.271000000    -0.368000000     1.966000000
H     5.785000000    -1.161000000     2.513000000
H     6.146000000     0.177000000     1.607000000
C     4.821000000    -1.085000000     0.642000000
C     4.389000000    -2.451000000     0.703000000
H     4.426000000    -3.006000000     1.637000000
C     4.665000000    -0.418000000    -0.626000000
C     4.230000000    -1.081000000    -1.793000000
H     4.205000000    -0.497000000    -2.710000000
C     3.757000000    -2.380000000    -1.612000000
O     3.157000000    -2.860000000    -2.715000000
C     1.694000000    -2.908000000    -2.660000000
C     1.002000000    -2.484000000    -4.016000000
C     1.646000000    -1.599000000    -4.903000000
H     2.647000000    -1.246000000    -4.669000000
C    -0.269000000    -3.002000000    -4.319000000
H    -0.708000000    -3.733000000    -3.644000000
O     1.206000000    -4.309000000    -2.352000000
H     1.298000000    -2.359000000    -1.793000000
C     3.919000000    -3.139000000    -0.432000000
C     3.334000000    -4.556000000    -0.335000000
H     3.941000000    -5.165000000     0.338000000
H     3.600000000    -5.063000000    -1.265000000
C     1.821000000    -4.601000000    -0.026000000
C     0.864000000    -4.670000000    -1.029000000
C    -0.470000000    -4.807000000    -0.748000000
H    -1.215000000    -4.617000000    -1.517000000
C    -0.911000000    -4.676000000     0.590000000
O    -2.272000000    -4.442000000     0.866000000
C    -2.671000000    -3.104000000     1.235000000
H    -1.867000000    -2.410000000     0.947000000
C    -3.937000000    -2.725000000     0.552000000
C    -4.746000000    -1.765000000     1.138000000
H    -4.386000000    -1.265000000     2.033000000
C    -4.310000000    -3.174000000    -0.722000000
H    -3.716000000    -3.988000000    -1.131000000
C    -5.459000000    -2.710000000    -1.382000000
O    -5.849000000    -3.222000000    -2.600000000
C    -6.240000000    -1.766000000    -0.696000000
H    -7.167000000    -1.377000000    -1.108000000
C    -5.938000000    -1.320000000     0.604000000
O    -6.643000000    -0.247000000     1.140000000
C    -6.422000000     0.511000000     2.320000000
C    -5.744000000     1.683000000     2.268000000
H    -5.396000000     2.097000000     1.325000000
C    -6.908000000     0.079000000     3.535000000
H    -7.269000000    -0.941000000     3.640000000
C    -6.786000000     0.831000000     4.709000000
H    -7.256000000     0.454000000     5.614000000
C    -6.231000000     2.062000000     4.631000000
H    -6.062000000     2.752000000     5.454000000
C    -5.656000000     2.481000000     3.409000000
O    -4.962000000     3.689000000     3.362000000
C    -3.612000000     3.761000000     3.226000000
C    -3.036000000     4.951000000     2.706000000
H    -3.660000000     5.804000000     2.453000000
C    -1.592000000     5.128000000     2.623000000
O    -1.175000000     6.353000000     2.107000000
C     0.159000000     6.611000000     1.963000000
C     0.722000000     6.434000000     0.665000000
H     0.180000000     5.957000000    -0.148000000
C     0.963000000     7.200000000     2.950000000
H     0.594000000     7.355000000     3.961000000
C     2.289000000     7.610000000     2.652000000
H     2.952000000     8.129000000     3.340000000
C     2.729000000     7.519000000     1.351000000
H     3.730000000     7.886000000     1.142000000
C     2.006000000     6.901000000     0.379000000
O     2.586000000     6.689000000    -0.871000000
C     2.724000000     5.407000000    -1.337000000
C     2.268000000     5.141000000    -2.601000000
H     1.603000000     5.919000000    -2.968000000
C     2.556000000     3.889000000    -3.162000000
O     1.983000000     3.663000000    -4.425000000
C     2.550000000     2.735000000    -5.264000000
C     1.854000000     1.628000000    -5.708000000
H     0.856000000     1.401000000    -5.341000000
C     3.796000000     2.996000000    -5.732000000
H     4.246000000     3.942000000    -5.441000000
C     4.296000000     2.219000000    -6.773000000
H     5.165000000     2.522000000    -7.352000000
C     3.620000000     1.052000000    -7.192000000
H     3.921000000     0.425000000    -8.028000000
C     2.345000000     0.713000000    -6.565000000
O     1.648000000    -0.395000000    -6.962000000
C     0.972000000    -1.207000000    -6.084000000
C    -0.288000000    -1.743000000    -6.439000000
H    -0.833000000    -1.493000000    -7.345000000
C    -0.929000000    -2.581000000    -5.481000000
O    -2.148000000    -3.067000000    -5.713000000
C    -2.979000000    -3.798000000    -4.893000000
C    -2.937000000    -5.167000000    -4.964000000
H    -2.255000000    -5.603000000    -5.690000000
C    -3.723000000    -5.948000000    -4.149000000
H    -3.664000000    -7.032000000    -4.108000000
C    -4.750000000    -5.274000000    -3.400000000
H    -5.460000000    -5.874000000    -2.837000000
C    -4.911000000    -3.902000000    -3.420000000
C    -3.860000000    -3.144000000    -4.115000000
H    -3.735000000    -2.082000000    -3.918000000
C    -0.170000000     2.163000000    -1.654000000
H     0.136000000     2.833000000    -2.454000000
C     0.718000000     1.127000000    -1.374000000
H     1.619000000     0.954000000    -1.957000000
C     0.500000000     0.185000000    -0.383000000
H     1.122000000    -0.723000000    -0.190000000
C    -0.486000000     0.416000000     0.539000000
H    -0.483000000    -0.221000000     1.420000000
C    -1.386000000     1.437000000     0.290000000
H    -2.188000000     1.626000000     0.999000000
C    -1.298000000     2.290000000    -0.820000000
C    -2.341000000     3.318000000    -1.195000000
O    -3.330000000     3.412000000    -0.461000000
O    -2.196000000     4.094000000    -2.140000000
O    -6.340000000     6.045000000     1.460000000
H    -5.567000000     6.223000000     0.925000000
H    -6.514000000     6.871000000     1.912000000
O    -6.255000000     5.290000000    -5.727000000
H    -6.328000000     5.260000000    -4.773000000
H    -7.114000000     5.593000000    -6.023000000
O    -4.660000000     3.386000000    -7.117000000
H    -5.424000000     3.961000000    -7.161000000
H    -4.521000000     3.244000000    -6.181000000
O    -4.838000000     4.521000000    -3.051000000
H    -3.987000000     4.488000000    -2.614000000
H    -4.784000000     3.848000000    -3.729000000
O    -3.683000000     8.852000000     1.329000000
H    -4.609000000     8.746000000     1.548000000
H    -3.468000000     8.074000000     0.815000000
O    -2.048000000     0.781000000    -5.521000000
H    -1.965000000     0.141000000    -4.813000000
H    -2.805000000     0.483000000    -6.025000000
O    -2.059000000     4.287000000    -4.647000000
H    -1.955000000     3.347000000    -4.793000000
H    -2.198000000     4.368000000    -3.703000000
O    -6.286000000     2.793000000    -1.146000000
H    -6.235000000     3.383000000    -1.898000000
H    -5.479000000     2.956000000    -0.658000000
O    -7.737000000     3.863000000     0.900000000
H    -7.449000000     4.665000000     1.336000000
H    -7.004000000     3.623000000     0.333000000
O    -3.835000000     6.144000000    -0.193000000
H    -3.760000000     5.190000000    -0.182000000
H    -3.340000000     6.414000000    -0.967000000
O    -0.629000000     4.535000000    -7.303000000
H    -1.092000000     4.317000000    -6.495000000
H    -0.537000000     3.699000000    -7.759000000
O    -1.032000000     1.601000000    -8.191000000
H    -1.022000000     1.440000000    -7.247000000
H    -1.935000000     1.856000000    -8.380000000
O    -6.038000000     7.068000000    -3.249000000
H    -5.384000000     6.423000000    -2.978000000
H    -6.655000000     7.105000000    -2.518000000
O    -1.860000000     6.741000000    -2.552000000
H    -1.909000000     5.908000000    -2.084000000
H    -1.520000000     6.511000000    -3.417000000
O    -1.778000000     9.415000000    -2.216000000
H    -1.993000000     8.487000000    -2.123000000
H    -2.625000000     9.861000000    -2.192000000
O    -4.389000000     2.193000000    -4.578000000
H    -4.279000000     1.733000000    -3.746000000
H    -4.218000000     1.527000000    -5.244000000
O    -6.620000000    -0.677000000    -3.592000000
H    -6.087000000    -0.246000000    -2.923000000
H    -6.572000000    -1.608000000    -3.374000000
O    -3.652000000     6.539000000    -6.119000000
H    -3.013000000     6.030000000    -5.620000000
H    -4.489000000     6.109000000    -5.944000000
O    -4.484000000     0.674000000    -2.246000000
H    -3.565000000     0.791000000    -2.005000000
H    -4.972000000     1.108000000    -1.547000000
