215
-1460.21379
C    -0.402000000     4.065000000     2.966000000
H     0.610000000     4.226000000     2.605000000
C    -0.614000000     2.976000000     3.811000000
C    -1.908000000     2.680000000     4.103000000
H    -2.279000000     1.798000000     4.619000000
C     0.448000000     1.868000000     3.827000000
O     1.784000000     2.370000000     4.114000000
H     0.478000000     1.371000000     2.846000000
O     0.130000000     0.835000000     4.913000000
C     0.242000000    -0.513000000     4.683000000
C    -0.935000000    -1.174000000     4.313000000
H    -1.899000000    -0.676000000     4.386000000
C    -0.868000000    -2.437000000     3.733000000
O    -2.067000000    -2.895000000     3.301000000
C     0.367000000    -3.119000000     3.755000000
C     0.475000000    -4.547000000     3.228000000
H     1.367000000    -4.998000000     3.668000000
C     0.488000000    -4.520000000     1.718000000
C     1.799000000    -4.497000000     1.150000000
H     2.692000000    -4.600000000     1.760000000
H    -0.369000000    -5.185000000     3.499000000
C     1.581000000    -2.390000000     3.977000000
H     2.507000000    -2.955000000     3.906000000
C     1.525000000    -1.105000000     4.458000000
C     2.787000000    -0.425000000     4.845000000
H     3.564000000    -1.139000000     5.127000000
H     2.619000000     0.189000000     5.732000000
C     3.329000000     0.456000000     3.731000000
C     4.291000000    -0.069000000     2.893000000
H     4.648000000    -1.073000000     3.107000000
C     2.836000000     1.744000000     3.438000000
C     3.348000000     2.491000000     2.363000000
H     2.954000000     3.485000000     2.164000000
C     4.227000000     1.907000000     1.516000000
O     4.380000000     2.565000000     0.299000000
C     3.670000000     2.090000000    -0.865000000
C     3.232000000     3.228000000    -1.767000000
C     2.644000000     2.887000000    -2.993000000
H     2.913000000     1.920000000    -3.409000000
C     3.082000000     4.541000000    -1.263000000
H     3.496000000     4.840000000    -0.303000000
O     4.492000000     1.215000000    -1.637000000
H     2.846000000     1.450000000    -0.517000000
C     4.715000000     0.592000000     1.755000000
C     5.604000000    -0.063000000     0.699000000
H     6.397000000    -0.734000000     1.033000000
H     6.141000000     0.744000000     0.197000000
C     4.796000000    -0.811000000    -0.357000000
C     4.517000000    -2.131000000    -0.209000000
H     4.849000000    -2.739000000     0.629000000
C     4.329000000    -0.150000000    -1.423000000
C     3.721000000    -0.844000000    -2.477000000
H     3.345000000    -0.254000000    -3.309000000
C     3.357000000    -2.181000000    -2.323000000
O     2.580000000    -2.826000000    -3.252000000
C     1.145000000    -3.018000000    -3.019000000
C     0.308000000    -2.672000000    -4.234000000
C     0.753000000    -1.863000000    -5.253000000
H     1.795000000    -1.559000000    -5.302000000
C    -1.081000000    -3.012000000    -4.172000000
H    -1.438000000    -3.523000000    -3.281000000
O     0.814000000    -4.336000000    -2.512000000
H     0.885000000    -2.295000000    -2.232000000
C     3.791000000    -2.839000000    -1.151000000
C     3.320000000    -4.304000000    -0.845000000
H     3.951000000    -4.820000000    -0.118000000
H     3.275000000    -4.836000000    -1.797000000
C     1.920000000    -4.461000000    -0.280000000
C     0.759000000    -4.496000000    -1.073000000
C    -0.488000000    -4.504000000    -0.468000000
H    -1.407000000    -4.360000000    -1.029000000
C    -0.656000000    -4.538000000     0.918000000
O    -1.964000000    -4.389000000     1.427000000
C    -2.343000000    -2.960000000     1.865000000
H    -1.676000000    -2.225000000     1.391000000
C    -3.794000000    -2.709000000     1.479000000
C    -4.542000000    -1.725000000     2.133000000
H    -4.144000000    -1.208000000     3.003000000
C    -4.352000000    -3.288000000     0.355000000
H    -3.650000000    -3.961000000    -0.131000000
C    -5.624000000    -2.892000000    -0.121000000
O    -6.146000000    -3.523000000    -1.212000000
C    -6.431000000    -2.050000000     0.629000000
H    -7.463000000    -1.869000000     0.341000000
C    -5.818000000    -1.399000000     1.740000000
O    -6.538000000    -0.361000000     2.345000000
C    -6.033000000     0.328000000     3.398000000
C    -5.379000000     1.518000000     3.171000000
H    -5.219000000     1.878000000     2.158000000
C    -6.194000000    -0.217000000     4.716000000
H    -6.731000000    -1.137000000     4.932000000
C    -5.593000000     0.494000000     5.803000000
H    -5.683000000    -0.044000000     6.744000000
C    -5.002000000     1.730000000     5.601000000
H    -4.683000000     2.371000000     6.419000000
C    -4.920000000     2.227000000     4.277000000
O    -4.231000000     3.372000000     4.030000000
C    -2.929000000     3.590000000     3.742000000
C    -2.668000000     4.649000000     2.886000000
H    -3.509000000     5.269000000     2.588000000
C    -1.365000000     4.903000000     2.495000000
O    -1.284000000     5.853000000     1.507000000
C    -0.115000000     6.527000000     1.289000000
C     0.474000000     6.306000000     0.059000000
H     0.095000000     5.640000000    -0.712000000
C     0.449000000     7.343000000     2.304000000
H     0.027000000     7.431000000     3.302000000
C     1.578000000     8.005000000     1.992000000
H     1.918000000     8.705000000     2.750000000
C     2.166000000     7.851000000     0.718000000
H     3.089000000     8.372000000     0.477000000
C     1.649000000     6.951000000    -0.207000000
O     2.245000000     6.769000000    -1.473000000
C     2.435000000     5.511000000    -2.058000000
C     1.824000000     5.171000000    -3.277000000
H     1.434000000     5.976000000    -3.894000000
C     2.017000000     3.874000000    -3.760000000
O     1.452000000     3.577000000    -4.958000000
C     1.763000000     2.480000000    -5.737000000
C     0.814000000     1.554000000    -5.996000000
H    -0.173000000     1.628000000    -5.545000000
C     3.086000000     2.433000000    -6.175000000
H     3.801000000     3.159000000    -5.797000000
C     3.478000000     1.338000000    -6.964000000
H     4.505000000     1.249000000    -7.308000000
C     2.500000000     0.442000000    -7.297000000
H     2.849000000    -0.440000000    -7.828000000
C     1.179000000     0.519000000    -6.806000000
O     0.366000000    -0.494000000    -7.211000000
C    -0.071000000    -1.495000000    -6.251000000
C    -1.399000000    -1.743000000    -6.166000000
H    -2.112000000    -1.321000000    -6.870000000
C    -1.957000000    -2.497000000    -5.126000000
O    -3.305000000    -2.492000000    -4.939000000
C    -3.919000000    -3.503000000    -4.171000000
C    -3.757000000    -4.900000000    -4.356000000
H    -3.106000000    -5.321000000    -5.118000000
C    -4.296000000    -5.779000000    -3.468000000
H    -4.064000000    -6.835000000    -3.580000000
C    -5.097000000    -5.274000000    -2.460000000
H    -5.482000000    -5.944000000    -1.696000000
C    -5.342000000    -3.905000000    -2.244000000
C    -4.737000000    -3.105000000    -3.081000000
H    -4.846000000    -2.034000000    -2.930000000
C    -0.441000000     0.381000000    -2.497000000
H     0.022000000     0.453000000    -3.478000000
C     0.394000000     0.311000000    -1.358000000
H     1.468000000     0.460000000    -1.435000000
C    -0.179000000     0.237000000    -0.058000000
H     0.417000000     0.447000000     0.843000000
C    -1.511000000     0.228000000     0.064000000
H    -1.961000000     0.083000000     1.042000000
C    -2.378000000     0.259000000    -1.044000000
H    -3.445000000     0.384000000    -0.881000000
C    -1.831000000     0.378000000    -2.366000000
C    -2.728000000     0.563000000    -3.587000000
O    -3.915000000     0.272000000    -3.517000000
O    -2.225000000     1.191000000    -4.551000000
O    -5.083000000     2.365000000    -0.597000000
H    -4.579000000     2.640000000    -1.363000000
H    -5.622000000     3.126000000    -0.379000000
O    -1.468000000     1.787000000    -8.215000000
H    -2.238000000     1.698000000    -7.654000000
H    -1.697000000     2.487000000    -8.827000000
O    -5.270000000    -1.742000000    -7.507000000
H    -5.322000000    -1.512000000    -6.579000000
H    -5.298000000    -0.901000000    -7.964000000
O    -7.323000000     1.885000000    -4.688000000
H    -7.412000000     1.787000000    -3.740000000
H    -7.444000000     2.822000000    -4.844000000
O    -4.519000000     6.485000000    -4.907000000
H    -5.100000000     6.880000000    -5.558000000
H    -4.732000000     5.552000000    -4.932000000
O    -5.509000000     0.557000000    -8.768000000
H    -5.290000000     0.824000000    -9.660000000
H    -6.284000000     1.074000000    -8.546000000
O    -1.520000000     6.483000000    -4.902000000
H    -1.788000000     5.671000000    -4.472000000
H    -2.254000000     6.706000000    -5.473000000
O    -5.938000000    -0.494000000    -5.211000000
H    -5.215000000    -0.336000000    -4.604000000
H    -6.512000000     0.265000000    -5.103000000
O    -3.748000000     1.675000000    -6.747000000
H    -4.259000000     0.902000000    -6.987000000
H    -3.264000000     1.409000000    -5.966000000
O    -4.169000000     3.094000000    -3.156000000
H    -4.017000000     3.494000000    -4.013000000
H    -4.277000000     2.161000000    -3.344000000
O    -0.138000000    -5.417000000    -5.698000000
H    -0.420000000    -4.617000000    -5.254000000
H    -0.343000000    -6.119000000    -5.080000000
O    -3.382000000     4.215000000    -8.677000000
H    -3.540000000     3.881000000    -7.794000000
H    -3.966000000     4.970000000    -8.756000000
O    -2.323000000     4.569000000    -1.576000000
H    -2.831000000     3.943000000    -1.060000000
H    -2.353000000     4.223000000    -2.468000000
O    -8.305000000    -0.824000000    -3.287000000
H    -7.475000000    -0.484000000    -2.953000000
H    -8.129000000    -1.747000000    -3.470000000
O    -6.230000000     5.354000000    -2.425000000
H    -6.406000000     5.099000000    -1.520000000
H    -5.615000000     4.694000000    -2.745000000
O    -1.527000000     3.629000000    -4.162000000
H    -1.831000000     2.732000000    -4.297000000
H    -0.647000000     3.643000000    -4.539000000
O    -7.468000000    -2.903000000    -4.819000000
H    -6.962000000    -2.095000000    -4.905000000
H    -7.028000000    -3.389000000    -4.122000000
O    -4.959000000     3.845000000    -5.578000000
H    -5.874000000     3.654000000    -5.785000000
H    -4.463000000     3.166000000    -6.037000000
O    -6.153000000     0.376000000    -2.075000000
H    -5.996000000     0.861000000    -1.265000000
H    -5.294000000     0.326000000    -2.494000000
