215
-1456.35355
C    -1.920000000     3.629000000     3.695000000
H    -1.118000000     4.294000000     4.008000000
C    -1.861000000     2.264000000     3.839000000
C    -2.955000000     1.514000000     3.339000000
H    -2.867000000     0.432000000     3.283000000
C    -0.559000000     1.565000000     4.102000000
O     0.444000000     2.452000000     4.529000000
H    -0.211000000     1.078000000     3.179000000
O    -0.737000000     0.481000000     4.976000000
C    -0.090000000    -0.682000000     4.666000000
C    -0.875000000    -1.719000000     4.191000000
H    -1.955000000    -1.598000000     4.156000000
C    -0.304000000    -2.875000000     3.633000000
O    -1.114000000    -3.887000000     3.073000000
C     1.088000000    -3.034000000     3.691000000
C     1.787000000    -4.229000000     3.195000000
H     2.762000000    -4.294000000     3.684000000
C     2.041000000    -4.206000000     1.663000000
C     3.220000000    -3.602000000     1.179000000
H     3.956000000    -3.249000000     1.896000000
H     1.352000000    -5.189000000     3.480000000
C     1.901000000    -2.075000000     4.261000000
H     2.974000000    -2.242000000     4.301000000
C     1.357000000    -0.821000000     4.647000000
C     2.267000000     0.241000000     5.252000000
H     3.152000000    -0.214000000     5.701000000
H     1.736000000     0.768000000     6.048000000
C     2.550000000     1.255000000     4.138000000
C     3.730000000     1.130000000     3.427000000
H     4.453000000     0.362000000     3.689000000
C     1.658000000     2.330000000     3.910000000
C     1.913000000     3.164000000     2.879000000
H     1.301000000     4.061000000     2.843000000
C     3.036000000     2.967000000     2.101000000
O     2.913000000     3.732000000     0.941000000
C     2.715000000     3.013000000    -0.356000000
C     1.719000000     3.807000000    -1.204000000
C     1.415000000     3.292000000    -2.436000000
H     1.812000000     2.312000000    -2.685000000
C     1.047000000     5.020000000    -0.787000000
H     1.207000000     5.479000000     0.185000000
O     3.880000000     2.638000000    -1.040000000
H     2.189000000     2.092000000    -0.065000000
C     3.986000000     1.906000000     2.288000000
C     5.193000000     1.686000000     1.366000000
H     5.920000000     1.078000000     1.907000000
H     5.619000000     2.671000000     1.163000000
C     4.785000000     0.767000000     0.194000000
C     4.971000000    -0.597000000     0.270000000
H     5.335000000    -1.040000000     1.194000000
C     4.247000000     1.317000000    -0.986000000
C     3.922000000     0.507000000    -2.080000000
H     3.607000000     0.858000000    -3.059000000
C     4.186000000    -0.861000000    -2.010000000
O     3.727000000    -1.705000000    -3.020000000
C     2.427000000    -2.303000000    -2.934000000
C     1.651000000    -2.113000000    -4.178000000
C     1.955000000    -1.209000000    -5.142000000
H     2.881000000    -0.639000000    -5.132000000
C     0.431000000    -2.825000000    -4.284000000
H     0.094000000    -3.467000000    -3.473000000
O     2.523000000    -3.721000000    -2.561000000
H     1.968000000    -1.753000000    -2.099000000
C     4.636000000    -1.411000000    -0.848000000
C     4.767000000    -2.965000000    -0.715000000
H     5.549000000    -3.180000000     0.017000000
H     5.094000000    -3.472000000    -1.625000000
C     3.458000000    -3.530000000    -0.229000000
C     2.473000000    -4.018000000    -1.149000000
C     1.247000000    -4.393000000    -0.641000000
H     0.457000000    -4.610000000    -1.355000000
C     0.980000000    -4.504000000     0.747000000
O    -0.319000000    -4.911000000     1.022000000
C    -1.189000000    -3.844000000     1.626000000
H    -0.752000000    -2.889000000     1.300000000
C    -2.572000000    -3.908000000     1.085000000
C    -3.699000000    -3.491000000     1.827000000
H    -3.510000000    -2.983000000     2.769000000
C    -2.733000000    -4.529000000    -0.154000000
H    -1.912000000    -4.844000000    -0.793000000
C    -4.023000000    -4.577000000    -0.687000000
O    -4.251000000    -5.318000000    -1.848000000
C    -5.173000000    -4.101000000     0.012000000
H    -6.150000000    -4.358000000    -0.389000000
C    -4.991000000    -3.472000000     1.271000000
O    -6.106000000    -3.097000000     2.017000000
C    -6.084000000    -1.982000000     2.799000000
C    -5.562000000    -0.805000000     2.293000000
H    -5.282000000    -0.613000000     1.260000000
C    -6.528000000    -2.066000000     4.131000000
H    -6.972000000    -2.994000000     4.481000000
C    -6.487000000    -0.890000000     4.965000000
H    -6.767000000    -0.921000000     6.015000000
C    -5.922000000     0.230000000     4.435000000
H    -6.161000000     1.167000000     4.932000000
C    -5.511000000     0.331000000     3.100000000
O    -5.139000000     1.546000000     2.498000000
C    -4.088000000     2.259000000     2.975000000
C    -4.161000000     3.632000000     2.888000000
H    -4.996000000     4.109000000     2.381000000
C    -3.003000000     4.320000000     3.157000000
O    -2.882000000     5.716000000     3.077000000
C    -1.996000000     6.455000000     2.313000000
C    -1.774000000     6.168000000     0.974000000
H    -2.406000000     5.477000000     0.421000000
C    -1.395000000     7.573000000     2.873000000
H    -1.643000000     7.778000000     3.912000000
C    -0.570000000     8.389000000     2.135000000
H    -0.180000000     9.308000000     2.565000000
C    -0.270000000     8.065000000     0.803000000
H     0.404000000     8.605000000     0.143000000
C    -0.816000000     6.861000000     0.224000000
O    -0.594000000     6.684000000    -1.068000000
C     0.141000000     5.690000000    -1.584000000
C    -0.035000000     5.196000000    -2.862000000
H    -0.791000000     5.638000000    -3.505000000
C     0.543000000     3.981000000    -3.253000000
O     0.227000000     3.541000000    -4.601000000
C     1.091000000     2.983000000    -5.442000000
C     0.919000000     1.680000000    -5.890000000
H     0.149000000     1.118000000    -5.367000000
C     1.913000000     3.852000000    -6.117000000
H     1.882000000     4.869000000    -5.733000000
C     2.694000000     3.364000000    -7.134000000
H     3.301000000     4.064000000    -7.703000000
C     2.632000000     1.975000000    -7.569000000
H     3.082000000     1.546000000    -8.461000000
C     1.692000000     1.177000000    -6.944000000
O     1.580000000    -0.198000000    -7.248000000
C     1.197000000    -1.098000000    -6.280000000
C    -0.012000000    -1.773000000    -6.348000000
H    -0.699000000    -1.663000000    -7.183000000
C    -0.392000000    -2.659000000    -5.337000000
O    -1.683000000    -3.143000000    -5.317000000
C    -2.109000000    -4.222000000    -4.643000000
C    -1.563000000    -5.488000000    -5.028000000
H    -0.840000000    -5.484000000    -5.840000000
C    -2.020000000    -6.656000000    -4.463000000
H    -1.734000000    -7.595000000    -4.930000000
C    -2.865000000    -6.584000000    -3.314000000
H    -3.276000000    -7.475000000    -2.845000000
C    -3.448000000    -5.343000000    -2.922000000
C    -3.067000000    -4.165000000    -3.563000000
H    -3.414000000    -3.208000000    -3.182000000
C    -0.370000000    -0.114000000    -1.921000000
H     0.037000000     0.067000000    -2.913000000
C     0.552000000    -0.048000000    -0.871000000
H     1.586000000     0.148000000    -1.143000000
C     0.166000000    -0.410000000     0.410000000
H     0.958000000    -0.318000000     1.261000000
C    -1.171000000    -0.721000000     0.668000000
H    -1.453000000    -1.041000000     1.668000000
C    -2.069000000    -0.839000000    -0.412000000
H    -3.057000000    -1.194000000    -0.133000000
C    -1.713000000    -0.512000000    -1.716000000
C    -2.654000000    -0.590000000    -2.839000000
O    -3.789000000    -1.027000000    -2.686000000
O    -2.421000000     0.098000000    -3.807000000
O    -5.351000000    -1.269000000    -4.981000000
H    -4.839000000    -1.209000000    -5.788000000
H    -4.718000000    -1.541000000    -4.316000000
O    -5.958000000     4.112000000    -3.248000000
H    -6.639000000     3.611000000    -2.799000000
H    -5.350000000     3.450000000    -3.577000000
O    -1.778000000     1.102000000    -8.639000000
H    -2.262000000     0.784000000    -7.877000000
H    -1.889000000     2.053000000    -8.613000000
O    -3.288000000     2.764000000    -0.909000000
H    -2.869000000     2.566000000    -1.747000000
H    -2.562000000     2.832000000    -0.289000000
O    -2.898000000    -0.068000000    -6.419000000
H    -2.633000000    -0.935000000    -6.727000000
H    -2.910000000    -0.146000000    -5.465000000
O    -8.014000000    -1.461000000    -1.656000000
H    -7.918000000    -0.514000000    -1.556000000
H    -7.156000000    -1.758000000    -1.959000000
O    -6.733000000    -6.122000000    -3.916000000
H    -6.563000000    -5.216000000    -3.659000000
H    -6.153000000    -6.642000000    -3.360000000
O    -7.773000000     1.476000000    -1.361000000
H    -6.825000000     1.369000000    -1.281000000
H    -7.883000000     2.117000000    -2.063000000
O    -2.720000000     4.476000000    -6.177000000
H    -2.514000000     4.085000000    -7.026000000
H    -3.584000000     4.128000000    -5.957000000
O    -5.509000000     1.401000000    -4.304000000
H    -5.499000000     0.445000000    -4.259000000
H    -4.606000000     1.659000000    -4.119000000
O    -3.900000000    -2.643000000    -7.499000000
H    -3.357000000    -3.421000000    -7.626000000
H    -4.786000000    -2.930000000    -7.721000000
O    -6.974000000    -3.437000000    -3.887000000
H    -7.624000000    -3.191000000    -4.546000000
H    -6.213000000    -2.892000000    -4.087000000
O    -0.837000000     2.874000000     0.444000000
H    -0.099000000     3.480000000     0.368000000
H    -0.439000000     2.005000000     0.388000000
O    -5.670000000    -0.085000000    -7.947000000
H    -4.929000000    -0.681000000    -8.052000000
H    -5.794000000     0.298000000    -8.816000000
O    -5.279000000     2.364000000    -6.813000000
H    -5.376000000     2.285000000    -5.864000000
H    -5.377000000     1.469000000    -7.138000000
O    -2.666000000     2.594000000    -3.632000000
H    -2.224000000     2.985000000    -4.386000000
H    -2.450000000     1.663000000    -3.685000000
O    -7.802000000    -0.684000000    -6.016000000
H    -7.716000000    -0.258000000    -6.869000000
H    -6.907000000    -0.731000000    -5.680000000
O    -5.152000000     5.003000000    -0.332000000
H    -5.758000000     5.012000000    -1.073000000
H    -4.617000000     4.222000000    -0.470000000
O    -5.160000000     0.707000000    -1.123000000
H    -4.831000000     0.040000000    -1.726000000
H    -4.437000000     1.328000000    -1.034000000
