215
-1459.53246
C    -1.814000000     4.048000000     3.086000000
H    -0.815000000     4.477000000     3.084000000
C    -2.022000000     2.694000000     3.332000000
C    -3.248000000     2.117000000     3.084000000
H    -3.423000000     1.059000000     3.262000000
C    -0.840000000     1.797000000     3.606000000
O     0.259000000     2.651000000     4.026000000
H    -0.623000000     1.255000000     2.674000000
O    -1.070000000     0.852000000     4.691000000
C    -0.489000000    -0.401000000     4.501000000
C    -1.364000000    -1.430000000     4.021000000
H    -2.407000000    -1.337000000     3.727000000
C    -0.806000000    -2.648000000     3.740000000
O    -1.642000000    -3.557000000     3.133000000
C     0.567000000    -2.872000000     3.813000000
C     1.134000000    -4.213000000     3.348000000
H     2.033000000    -4.397000000     3.941000000
C     1.488000000    -4.400000000     1.898000000
C     2.791000000    -4.136000000     1.453000000
H     3.586000000    -3.886000000     2.151000000
H     0.415000000    -4.987000000     3.621000000
C     1.457000000    -1.877000000     4.322000000
H     2.512000000    -2.005000000     4.548000000
C     0.857000000    -0.684000000     4.776000000
C     1.760000000     0.431000000     5.350000000
H     2.572000000     0.124000000     6.013000000
H     1.262000000     1.126000000     6.030000000
C     2.233000000     1.205000000     4.076000000
C     3.369000000     0.694000000     3.412000000
H     3.913000000    -0.193000000     3.725000000
C     1.589000000     2.353000000     3.652000000
C     2.071000000     2.996000000     2.524000000
H     1.591000000     3.932000000     2.251000000
C     3.125000000     2.489000000     1.836000000
O     3.528000000     3.179000000     0.690000000
C     2.978000000     2.627000000    -0.489000000
C     2.386000000     3.780000000    -1.369000000
C     2.562000000     3.712000000    -2.736000000
H     3.265000000     2.974000000    -3.115000000
C     1.550000000     4.703000000    -0.859000000
H     1.269000000     4.674000000     0.191000000
O     4.082000000     1.932000000    -1.145000000
H     2.168000000     1.965000000    -0.149000000
C     3.800000000     1.393000000     2.277000000
C     5.039000000     0.948000000     1.528000000
H     5.564000000     0.236000000     2.168000000
H     5.775000000     1.704000000     1.248000000
C     4.693000000     0.040000000     0.294000000
C     4.751000000    -1.349000000     0.450000000
H     5.106000000    -1.808000000     1.369000000
C     4.211000000     0.591000000    -0.900000000
C     4.046000000    -0.243000000    -1.992000000
H     3.729000000     0.272000000    -2.895000000
C     4.117000000    -1.597000000    -1.885000000
O     3.488000000    -2.400000000    -2.803000000
C     2.073000000    -2.695000000    -2.549000000
C     1.264000000    -2.305000000    -3.773000000
C     1.548000000    -1.161000000    -4.552000000
H     2.371000000    -0.486000000    -4.329000000
C     0.158000000    -3.091000000    -4.137000000
H    -0.118000000    -3.949000000    -3.530000000
O     1.948000000    -4.067000000    -2.162000000
H     1.781000000    -2.031000000    -1.721000000
C     4.445000000    -2.159000000    -0.665000000
C     4.396000000    -3.621000000    -0.394000000
H     5.103000000    -3.861000000     0.403000000
H     4.681000000    -4.194000000    -1.279000000
C     2.998000000    -4.024000000     0.061000000
C     1.903000000    -4.355000000    -0.815000000
C     0.692000000    -4.790000000    -0.282000000
H    -0.173000000    -4.896000000    -0.932000000
C     0.464000000    -4.776000000     1.043000000
O    -0.892000000    -4.894000000     1.407000000
C    -1.545000000    -3.694000000     1.760000000
H    -0.997000000    -2.860000000     1.296000000
C    -2.949000000    -3.499000000     1.083000000
C    -4.005000000    -2.969000000     1.812000000
H    -3.980000000    -2.784000000     2.883000000
C    -3.026000000    -3.920000000    -0.223000000
H    -2.179000000    -4.422000000    -0.683000000
C    -4.280000000    -3.917000000    -0.827000000
O    -4.585000000    -4.512000000    -2.056000000
C    -5.406000000    -3.323000000    -0.198000000
H    -6.379000000    -3.329000000    -0.681000000
C    -5.211000000    -2.829000000     1.067000000
O    -6.322000000    -2.272000000     1.672000000
C    -6.400000000    -1.175000000     2.485000000
C    -5.935000000     0.050000000     1.997000000
H    -5.555000000     0.236000000     0.995000000
C    -6.816000000    -1.245000000     3.762000000
H    -7.043000000    -2.177000000     4.273000000
C    -6.785000000    -0.168000000     4.599000000
H    -6.923000000    -0.373000000     5.657000000
C    -6.369000000     1.041000000     4.136000000
H    -6.433000000     1.882000000     4.821000000
C    -5.987000000     1.211000000     2.818000000
O    -5.489000000     2.332000000     2.357000000
C    -4.332000000     2.916000000     2.793000000
C    -4.173000000     4.287000000     2.697000000
H    -5.022000000     4.878000000     2.361000000
C    -2.910000000     4.896000000     2.898000000
O    -2.776000000     6.221000000     2.565000000
C    -1.673000000     6.780000000     1.903000000
C    -1.377000000     6.450000000     0.568000000
H    -2.068000000     5.852000000    -0.019000000
C    -0.830000000     7.601000000     2.678000000
H    -1.171000000     7.811000000     3.688000000
C     0.343000000     8.108000000     2.128000000
H     0.926000000     8.862000000     2.651000000
C     0.668000000     7.763000000     0.784000000
H     1.564000000     8.139000000     0.297000000
C    -0.212000000     6.949000000     0.033000000
O     0.058000000     6.608000000    -1.338000000
C     0.956000000     5.595000000    -1.736000000
C     1.131000000     5.532000000    -3.106000000
H     0.651000000     6.211000000    -3.807000000
C     2.011000000     4.588000000    -3.649000000
O     2.293000000     4.543000000    -4.991000000
C     2.664000000     3.313000000    -5.584000000
C     1.760000000     2.280000000    -5.768000000
H     0.713000000     2.510000000    -5.588000000
C     4.009000000     3.092000000    -5.902000000
H     4.721000000     3.866000000    -5.627000000
C     4.375000000     1.871000000    -6.402000000
H     5.409000000     1.645000000    -6.647000000
C     3.444000000     0.837000000    -6.625000000
H     3.725000000    -0.081000000    -7.135000000
C     2.095000000     1.039000000    -6.351000000
O     1.135000000     0.036000000    -6.595000000
C     0.797000000    -0.926000000    -5.685000000
C    -0.260000000    -1.771000000    -6.119000000
H    -0.924000000    -1.441000000    -6.913000000
C    -0.584000000    -2.842000000    -5.272000000
O    -1.543000000    -3.681000000    -5.771000000
C    -2.259000000    -4.558000000    -5.023000000
C    -2.108000000    -5.953000000    -5.140000000
H    -1.457000000    -6.296000000    -5.940000000
C    -2.621000000    -6.812000000    -4.146000000
H    -2.285000000    -7.846000000    -4.120000000
C    -3.390000000    -6.323000000    -3.143000000
H    -3.782000000    -7.030000000    -2.417000000
C    -3.653000000    -4.951000000    -2.960000000
C    -3.041000000    -4.074000000    -3.956000000
H    -3.130000000    -2.999000000    -3.820000000
C    -1.201000000     0.124000000    -2.231000000
H    -1.274000000     0.154000000    -3.316000000
C     0.040000000     0.181000000    -1.621000000
H     0.961000000     0.210000000    -2.198000000
C     0.127000000     0.064000000    -0.202000000
H     1.091000000     0.021000000     0.263000000
C    -1.050000000    -0.165000000     0.521000000
H    -0.942000000    -0.458000000     1.562000000
C    -2.270000000    -0.077000000    -0.110000000
H    -3.095000000    -0.112000000     0.598000000
C    -2.390000000     0.076000000    -1.495000000
C    -3.651000000     0.358000000    -2.232000000
O    -4.714000000     0.368000000    -1.617000000
O    -3.600000000     0.508000000    -3.431000000
O    -7.152000000    -0.968000000    -2.266000000
H    -6.742000000    -1.545000000    -2.910000000
H    -6.481000000    -0.315000000    -2.067000000
O    -2.286000000     0.142000000    -9.030000000
H    -2.576000000     0.114000000    -8.118000000
H    -2.074000000     1.062000000    -9.186000000
O    -4.220000000     3.278000000    -0.837000000
H    -3.478000000     3.631000000    -1.329000000
H    -4.200000000     2.338000000    -1.017000000
O    -8.867000000     3.301000000    -1.609000000
H    -8.495000000     3.987000000    -1.055000000
H    -8.110000000     2.798000000    -1.910000000
O    -2.844000000     5.640000000    -2.335000000
H    -2.044000000     5.124000000    -2.236000000
H    -3.153000000     5.437000000    -3.218000000
O    -3.443000000     0.152000000    -6.253000000
H    -3.931000000    -0.657000000    -6.402000000
H    -3.307000000     0.179000000    -5.306000000
O    -6.433000000     4.424000000    -3.603000000
H    -6.335000000     4.936000000    -2.800000000
H    -6.290000000     3.518000000    -3.329000000
O    -9.411000000    -1.757000000    -1.088000000
H    -9.627000000    -2.597000000    -1.493000000
H    -8.636000000    -1.455000000    -1.561000000
O    -7.675000000    -4.092000000    -3.505000000
H    -7.104000000    -3.417000000    -3.871000000
H    -7.089000000    -4.655000000    -3.000000000
O    -8.618000000     0.546000000    -4.091000000
H    -7.662000000     0.556000000    -4.124000000
H    -8.826000000    -0.009000000    -3.339000000
O    -4.721000000    -2.400000000    -6.688000000
H    -5.409000000    -1.929000000    -7.159000000
H    -4.780000000    -3.298000000    -7.013000000
O    -5.984000000     0.966000000    -4.635000000
H    -5.206000000     0.810000000    -4.100000000
H    -5.701000000     1.604000000    -5.290000000
O    -6.008000000    -2.016000000    -4.417000000
H    -6.507000000    -1.242000000    -4.677000000
H    -5.525000000    -2.266000000    -5.205000000
O    -1.522000000     2.970000000    -0.298000000
H    -1.043000000     2.146000000    -0.388000000
H    -2.073000000     2.844000000     0.475000000
O    -1.310000000     5.192000000    -5.436000000
H    -2.209000000     5.500000000    -5.551000000
H    -1.366000000     4.548000000    -4.729000000
O    -4.039000000     2.666000000    -7.071000000
H    -4.866000000     2.406000000    -7.478000000
H    -3.712000000     1.865000000    -6.662000000
O    -7.829000000     4.121000000    -5.796000000
H    -7.290000000     4.253000000    -5.016000000
H    -7.978000000     3.176000000    -5.828000000
O    -1.851000000     3.284000000    -3.372000000
H    -1.221000000     3.208000000    -2.656000000
H    -2.178000000     2.394000000    -3.499000000
O    -6.592000000     2.091000000    -1.816000000
H    -5.888000000     1.448000000    -1.892000000
H    -6.325000000     2.655000000    -1.090000000
