215
-1485.10778
C    -1.675000000     3.290000000     3.169000000
H    -0.679000000     3.714000000     3.063000000
C    -1.793000000     2.038000000     3.707000000
C    -3.065000000     1.494000000     3.836000000
H    -3.147000000     0.438000000     4.080000000
C    -0.533000000     1.155000000     3.881000000
O     0.522000000     1.918000000     4.414000000
H    -0.252000000     0.755000000     2.895000000
O    -0.788000000     0.105000000     4.848000000
C    -0.329000000    -1.206000000     4.591000000
C    -1.268000000    -2.052000000     3.950000000
H    -2.329000000    -1.871000000     3.800000000
C    -0.838000000    -3.278000000     3.450000000
O    -1.763000000    -4.051000000     2.789000000
C     0.486000000    -3.624000000     3.462000000
C     1.102000000    -4.885000000     2.712000000
H     2.049000000    -5.230000000     3.133000000
C     1.320000000    -4.684000000     1.200000000
C     2.515000000    -4.110000000     0.758000000
H     3.319000000    -3.935000000     1.468000000
H     0.362000000    -5.685000000     2.775000000
C     1.472000000    -2.773000000     4.034000000
H     2.528000000    -3.026000000     3.976000000
C     1.075000000    -1.515000000     4.577000000
C     2.067000000    -0.554000000     5.176000000
H     2.935000000    -1.114000000     5.529000000
H     1.742000000    -0.082000000     6.106000000
C     2.550000000     0.522000000     4.192000000
C     3.692000000     0.292000000     3.440000000
H     4.287000000    -0.591000000     3.656000000
C     1.742000000     1.695000000     3.922000000
C     2.162000000     2.568000000     2.935000000
H     1.572000000     3.471000000     2.801000000
C     3.305000000     2.273000000     2.154000000
O     3.637000000     3.102000000     1.158000000
C     3.311000000     2.828000000    -0.222000000
C     2.916000000     4.085000000    -1.013000000
C     3.026000000     4.065000000    -2.390000000
H     3.519000000     3.263000000    -2.934000000
C     2.131000000     5.081000000    -0.452000000
H     1.886000000     5.069000000     0.607000000
O     4.484000000     2.201000000    -0.793000000
H     2.482000000     2.105000000    -0.227000000
C     4.084000000     1.168000000     2.418000000
C     5.355000000     0.790000000     1.614000000
H     5.981000000     0.059000000     2.130000000
H     5.970000000     1.669000000     1.410000000
C     4.948000000     0.144000000     0.280000000
C     4.912000000    -1.241000000     0.125000000
H     5.272000000    -1.839000000     0.958000000
C     4.448000000     0.858000000    -0.814000000
C     4.021000000     0.289000000    -1.951000000
H     3.752000000     0.945000000    -2.775000000
C     3.890000000    -1.067000000    -2.082000000
O     3.392000000    -1.605000000    -3.255000000
C     1.961000000    -2.039000000    -3.161000000
C     1.075000000    -1.611000000    -4.339000000
C     1.252000000    -0.339000000    -4.950000000
H     2.040000000     0.282000000    -4.530000000
C    -0.041000000    -2.386000000    -4.753000000
H    -0.261000000    -3.329000000    -4.259000000
O     1.785000000    -3.404000000    -2.853000000
H     1.572000000    -1.552000000    -2.255000000
C     4.288000000    -1.854000000    -0.972000000
C     4.117000000    -3.341000000    -0.972000000
H     4.829000000    -3.874000000    -0.338000000
H     4.389000000    -3.822000000    -1.913000000
C     2.720000000    -3.744000000    -0.570000000
C     1.709000000    -3.884000000    -1.548000000
C     0.474000000    -4.326000000    -1.052000000
H    -0.353000000    -4.360000000    -1.756000000
C     0.268000000    -4.743000000     0.245000000
O    -1.072000000    -4.947000000     0.660000000
C    -1.765000000    -3.894000000     1.340000000
H    -1.241000000    -2.978000000     1.027000000
C    -3.193000000    -3.674000000     0.790000000
C    -4.276000000    -3.363000000     1.671000000
H    -4.149000000    -3.466000000     2.745000000
C    -3.396000000    -3.518000000    -0.622000000
H    -2.662000000    -3.616000000    -1.417000000
C    -4.687000000    -3.180000000    -1.056000000
O    -4.921000000    -3.239000000    -2.407000000
C    -5.718000000    -2.947000000    -0.145000000
H    -6.751000000    -2.830000000    -0.463000000
C    -5.507000000    -2.985000000     1.205000000
O    -6.481000000    -2.794000000     2.211000000
C    -6.389000000    -1.840000000     3.199000000
C    -5.971000000    -0.593000000     2.807000000
H    -5.645000000    -0.425000000     1.784000000
C    -6.878000000    -2.079000000     4.466000000
H    -7.339000000    -3.027000000     4.729000000
C    -6.656000000    -1.109000000     5.487000000
H    -7.000000000    -1.202000000     6.514000000
C    -6.146000000     0.153000000     5.115000000
H    -6.081000000     0.973000000     5.826000000
C    -5.865000000     0.402000000     3.771000000
O    -5.464000000     1.686000000     3.403000000
C    -4.165000000     2.171000000     3.353000000
C    -4.041000000     3.474000000     2.774000000
H    -4.913000000     3.907000000     2.291000000
C    -2.775000000     4.013000000     2.704000000
O    -2.664000000     5.180000000     1.965000000
C    -1.498000000     5.927000000     1.906000000
C    -0.824000000     6.013000000     0.674000000
H    -1.107000000     5.388000000    -0.169000000
C    -1.033000000     6.524000000     3.080000000
H    -1.534000000     6.453000000     4.042000000
C     0.162000000     7.310000000     2.998000000
H     0.480000000     7.856000000     3.882000000
C     0.796000000     7.452000000     1.770000000
H     1.724000000     8.005000000     1.650000000
C     0.306000000     6.833000000     0.628000000
O     0.840000000     7.094000000    -0.617000000
C     1.624000000     6.119000000    -1.269000000
C     1.828000000     6.149000000    -2.647000000
H     1.508000000     6.990000000    -3.257000000
C     2.483000000     5.053000000    -3.212000000
O     2.696000000     5.014000000    -4.565000000
C     2.817000000     3.884000000    -5.306000000
C     1.713000000     3.172000000    -5.600000000
H     0.774000000     3.456000000    -5.131000000
C     4.059000000     3.524000000    -5.802000000
H     4.914000000     4.083000000    -5.431000000
C     4.170000000     2.405000000    -6.610000000
H     5.124000000     2.222000000    -7.098000000
C     2.998000000     1.691000000    -6.942000000
H     3.069000000     0.833000000    -7.605000000
C     1.773000000     2.054000000    -6.397000000
O     0.655000000     1.318000000    -6.628000000
C     0.435000000     0.082000000    -5.968000000
C    -0.638000000    -0.753000000    -6.409000000
H    -1.233000000    -0.387000000    -7.242000000
C    -0.877000000    -1.915000000    -5.763000000
O    -1.959000000    -2.709000000    -6.111000000
C    -2.646000000    -3.588000000    -5.214000000
C    -2.358000000    -4.948000000    -5.173000000
H    -1.655000000    -5.431000000    -5.847000000
C    -2.892000000    -5.754000000    -4.236000000
H    -2.690000000    -6.821000000    -4.238000000
C    -3.857000000    -5.205000000    -3.312000000
H    -4.352000000    -5.818000000    -2.564000000
C    -4.192000000    -3.872000000    -3.408000000
C    -3.603000000    -3.075000000    -4.377000000
H    -3.795000000    -2.008000000    -4.458000000
C    -0.786000000     0.650000000    -2.205000000
H    -0.575000000     1.099000000    -3.172000000
C     0.259000000     0.588000000    -1.290000000
H     1.281000000     0.886000000    -1.508000000
C    -0.090000000     0.059000000    -0.024000000
H     0.702000000     0.014000000     0.751000000
C    -1.378000000    -0.331000000     0.295000000
H    -1.548000000    -0.847000000     1.236000000
C    -2.425000000    -0.128000000    -0.604000000
H    -3.431000000    -0.396000000    -0.293000000
C    -2.126000000     0.356000000    -1.888000000
C    -3.198000000     0.594000000    -2.938000000
O    -4.381000000     0.698000000    -2.579000000
O    -2.854000000     0.875000000    -4.052000000
O    -7.170000000     4.308000000    -6.193000000
H    -7.106000000     4.191000000    -5.245000000
H    -6.307000000     4.058000000    -6.524000000
O    -4.581000000     3.963000000    -7.411000000
H    -4.854000000     3.679000000    -8.284000000
H    -4.154000000     4.807000000    -7.556000000
O    -4.423000000     3.166000000    -1.041000000
H    -3.521000000     2.999000000    -0.765000000
H    -4.678000000     2.376000000    -1.517000000
O    -2.378000000    -2.508000000    -9.005000000
H    -2.721000000    -1.619000000    -8.914000000
H    -2.838000000    -3.013000000    -8.335000000
O    -7.098000000     1.337000000    -8.215000000
H    -7.242000000     1.238000000    -7.274000000
H    -7.714000000     0.724000000    -8.617000000
O    -3.259000000    -0.091000000    -9.075000000
H    -2.972000000     0.634000000    -9.630000000
H    -3.567000000     0.329000000    -8.272000000
O    -6.757000000     4.612000000    -3.438000000
H    -6.550000000     5.506000000    -3.167000000
H    -5.904000000     4.198000000    -3.572000000
O    -3.108000000     5.405000000    -2.390000000
H    -2.545000000     4.999000000    -3.049000000
H    -3.477000000     4.668000000    -1.903000000
O    -6.609000000     0.242000000    -4.805000000
H    -7.009000000     1.080000000    -4.574000000
H    -6.193000000    -0.056000000    -3.996000000
O    -3.913000000     0.844000000    -6.539000000
H    -3.433000000     0.684000000    -5.726000000
H    -4.830000000     0.898000000    -6.269000000
O    -6.064000000     5.303000000    -0.285000000
H    -5.523000000     4.638000000    -0.710000000
H    -6.829000000     4.823000000     0.031000000
O    -7.390000000    -4.029000000    -4.169000000
H    -7.635000000    -4.534000000    -3.394000000
H    -7.217000000    -3.148000000    -3.836000000
O    -5.419000000     7.268000000    -2.013000000
H    -4.647000000     6.791000000    -2.317000000
H    -5.723000000     6.772000000    -1.253000000
O    -1.769000000     2.558000000    -7.116000000
H    -2.642000000     2.167000000    -7.071000000
H    -1.184000000     1.819000000    -7.284000000
O    -1.655000000     2.920000000    -0.468000000
H    -1.362000000     2.251000000    -1.085000000
H    -1.319000000     2.628000000     0.380000000
O    -7.487000000    -1.552000000    -2.642000000
H    -7.255000000    -1.335000000    -1.740000000
H    -7.617000000    -0.704000000    -3.067000000
O    -2.121000000     3.465000000    -4.482000000
H    -2.762000000     2.770000000    -4.333000000
H    -1.835000000     3.338000000    -5.386000000
O    -4.853000000     2.685000000    -4.450000000
H    -4.436000000     2.985000000    -5.258000000
H    -4.460000000     1.829000000    -4.282000000
O    -6.475000000     0.840000000    -0.840000000
H    -6.365000000     1.687000000    -0.408000000
H    -5.714000000     0.765000000    -1.416000000
