215
-1435.02369
C    -0.987000000     4.023000000     3.423000000
H     0.049000000     4.305000000     3.254000000
C    -1.241000000     2.736000000     3.826000000
C    -2.573000000     2.395000000     4.161000000
H    -2.732000000     1.369000000     4.484000000
C    -0.104000000     1.704000000     4.025000000
O     1.164000000     2.358000000     4.440000000
H    -0.005000000     1.189000000     3.058000000
O    -0.383000000     0.775000000     5.071000000
C    -0.110000000    -0.469000000     4.646000000
C    -1.225000000    -1.196000000     4.232000000
H    -2.250000000    -0.836000000     4.254000000
C    -0.998000000    -2.481000000     3.708000000
O    -2.089000000    -3.124000000     3.147000000
C     0.262000000    -3.066000000     3.750000000
C     0.466000000    -4.496000000     3.203000000
H     1.194000000    -5.048000000     3.800000000
C     0.837000000    -4.523000000     1.718000000
C     2.147000000    -4.377000000     1.209000000
H     2.989000000    -4.557000000     1.872000000
H    -0.496000000    -5.012000000     3.218000000
C     1.338000000    -2.390000000     4.408000000
H     2.388000000    -2.669000000     4.449000000
C     1.159000000    -1.033000000     4.700000000
C     2.357000000    -0.254000000     5.204000000
H     3.259000000    -0.805000000     5.478000000
H     2.090000000     0.302000000     6.105000000
C     2.833000000     0.611000000     4.057000000
C     3.960000000     0.199000000     3.294000000
H     4.397000000    -0.760000000     3.561000000
C     2.301000000     1.874000000     3.777000000
C     2.611000000     2.539000000     2.630000000
H     2.190000000     3.527000000     2.464000000
C     3.566000000     1.943000000     1.772000000
O     3.831000000     2.669000000     0.566000000
C     3.180000000     2.013000000    -0.613000000
C     2.475000000     3.072000000    -1.448000000
C     2.502000000     2.900000000    -2.844000000
H     3.107000000     2.106000000    -3.275000000
C     1.733000000     4.128000000    -0.850000000
H     1.680000000     4.309000000     0.221000000
O     4.381000000     1.477000000    -1.261000000
H     2.449000000     1.237000000    -0.344000000
C     4.316000000     0.828000000     2.107000000
C     5.495000000     0.312000000     1.247000000
H     6.238000000    -0.204000000     1.859000000
H     6.097000000     1.198000000     1.033000000
C     4.892000000    -0.521000000     0.123000000
C     4.722000000    -1.886000000     0.161000000
H     4.958000000    -2.281000000     1.146000000
C     4.516000000     0.133000000    -1.068000000
C     4.095000000    -0.524000000    -2.174000000
H     3.656000000     0.100000000    -2.948000000
C     3.952000000    -1.923000000    -2.111000000
O     3.226000000    -2.483000000    -3.127000000
C     1.809000000    -2.722000000    -3.000000000
C     1.106000000    -2.574000000    -4.306000000
C     1.487000000    -1.594000000    -5.211000000
H     2.420000000    -1.088000000    -4.976000000
C    -0.041000000    -3.373000000    -4.669000000
H    -0.357000000    -4.164000000    -3.993000000
O     1.581000000    -4.063000000    -2.430000000
H     1.248000000    -2.070000000    -2.316000000
C     4.210000000    -2.644000000    -0.895000000
C     3.861000000    -4.092000000    -0.685000000
H     4.459000000    -4.431000000     0.164000000
H     4.062000000    -4.711000000    -1.563000000
C     2.450000000    -4.230000000    -0.162000000
C     1.372000000    -4.122000000    -1.048000000
C     0.038000000    -4.249000000    -0.560000000
H    -0.818000000    -4.163000000    -1.223000000
C    -0.177000000    -4.367000000     0.789000000
O    -1.540000000    -4.337000000     1.124000000
C    -2.139000000    -3.093000000     1.646000000
H    -1.434000000    -2.317000000     1.312000000
C    -3.490000000    -2.814000000     1.010000000
C    -4.244000000    -1.828000000     1.644000000
H    -3.940000000    -1.581000000     2.658000000
C    -3.717000000    -3.253000000    -0.317000000
H    -2.931000000    -3.769000000    -0.863000000
C    -4.847000000    -2.673000000    -0.966000000
O    -5.117000000    -2.836000000    -2.310000000
C    -5.802000000    -1.961000000    -0.285000000
H    -6.709000000    -1.729000000    -0.837000000
C    -5.514000000    -1.542000000     1.095000000
O    -6.464000000    -0.927000000     1.922000000
C    -6.172000000    -0.247000000     3.086000000
C    -5.577000000     0.989000000     3.104000000
H    -5.255000000     1.387000000     2.145000000
C    -6.738000000    -0.781000000     4.257000000
H    -7.393000000    -1.648000000     4.240000000
C    -6.558000000    -0.110000000     5.485000000
H    -6.936000000    -0.425000000     6.455000000
C    -5.875000000     1.102000000     5.489000000
H    -5.756000000     1.760000000     6.346000000
C    -5.424000000     1.690000000     4.277000000
O    -4.881000000     2.968000000     4.294000000
C    -3.607000000     3.271000000     3.998000000
C    -3.279000000     4.625000000     3.661000000
H    -4.076000000     5.363000000     3.684000000
C    -2.013000000     4.945000000     3.372000000
O    -1.700000000     6.256000000     3.081000000
C    -0.745000000     6.642000000     2.229000000
C    -0.563000000     6.145000000     0.926000000
H    -1.154000000     5.304000000     0.572000000
C     0.041000000     7.763000000     2.615000000
H    -0.015000000     8.143000000     3.632000000
C     0.874000000     8.352000000     1.671000000
H     1.555000000     9.157000000     1.937000000
C     0.996000000     7.793000000     0.401000000
H     1.747000000     8.193000000    -0.275000000
C     0.353000000     6.603000000     0.046000000
O     0.335000000     6.130000000    -1.228000000
C     1.110000000     5.027000000    -1.659000000
C     1.113000000     4.868000000    -3.012000000
H     0.595000000     5.607000000    -3.618000000
C     1.822000000     3.843000000    -3.628000000
O     1.863000000     3.881000000    -5.011000000
C     2.315000000     2.867000000    -5.813000000
C     1.406000000     1.954000000    -6.295000000
H     0.345000000     2.085000000    -6.096000000
C     3.684000000     2.706000000    -6.111000000
H     4.503000000     3.402000000    -5.948000000
C     4.192000000     1.556000000    -6.732000000
H     5.248000000     1.407000000    -6.943000000
C     3.262000000     0.587000000    -7.139000000
H     3.647000000    -0.278000000    -7.672000000
C     1.899000000     0.767000000    -6.954000000
O     1.036000000    -0.223000000    -7.233000000
C     0.738000000    -1.283000000    -6.382000000
C    -0.375000000    -2.100000000    -6.688000000
H    -0.861000000    -1.795000000    -7.611000000
C    -0.846000000    -3.077000000    -5.812000000
O    -2.055000000    -3.588000000    -6.054000000
C    -2.918000000    -4.003000000    -5.048000000
C    -3.025000000    -5.380000000    -4.930000000
H    -2.559000000    -6.037000000    -5.660000000
C    -3.893000000    -5.883000000    -3.978000000
H    -3.980000000    -6.967000000    -3.985000000
C    -4.498000000    -5.048000000    -3.047000000
H    -5.081000000    -5.547000000    -2.277000000
C    -4.365000000    -3.643000000    -3.091000000
C    -3.610000000    -3.100000000    -4.172000000
H    -3.593000000    -2.041000000    -4.415000000
C    -2.741000000    -0.180000000    -1.740000000
H    -3.361000000    -0.239000000    -2.631000000
C    -1.663000000    -1.072000000    -1.641000000
H    -1.533000000    -1.850000000    -2.390000000
C    -0.889000000    -0.908000000    -0.489000000
H    -0.101000000    -1.615000000    -0.291000000
C    -1.241000000     0.071000000     0.523000000
H    -0.638000000     0.149000000     1.424000000
C    -2.332000000     1.009000000     0.338000000
H    -2.850000000     1.661000000     1.037000000
C    -3.049000000     0.883000000    -0.843000000
C    -4.348000000     1.805000000    -1.056000000
O    -4.560000000     2.760000000    -0.360000000
O    -5.266000000     1.443000000    -1.744000000
O    -2.921000000     3.090000000    -6.660000000
H    -2.482000000     2.716000000    -7.424000000
H    -3.647000000     2.491000000    -6.485000000
O    -3.663000000     5.056000000    -1.051000000
H    -2.974000000     4.924000000    -1.702000000
H    -3.835000000     4.181000000    -0.704000000
O    -9.994000000     2.701000000     1.815000000
H    -9.805000000     1.779000000     1.639000000
H    -9.420000000     2.927000000     2.547000000
O    -7.050000000     3.191000000     0.616000000
H    -6.223000000     2.972000000     0.187000000
H    -7.099000000     2.594000000     1.362000000
O    -5.177000000     1.473000000    -6.548000000
H    -6.008000000     1.592000000    -7.009000000
H    -5.427000000     1.344000000    -5.634000000
O    -9.194000000     5.322000000    -2.118000000
H    -9.401000000     5.505000000    -1.202000000
H    -8.344000000     4.883000000    -2.089000000
O   -10.042000000     1.480000000    -3.587000000
H    -9.498000000     1.592000000    -2.807000000
H    -9.423000000     1.511000000    -4.317000000
O    -6.165000000     1.448000000    -4.249000000
H    -6.947000000     1.963000000    -4.050000000
H    -5.622000000     1.524000000    -3.465000000
O    -6.508000000     6.518000000     1.824000000
H    -5.968000000     7.036000000     1.227000000
H    -6.749000000     5.743000000     1.317000000
O    -9.320000000     5.579000000     0.655000000
H    -9.045000000     4.699000000     0.910000000
H    -9.625000000     5.981000000     1.468000000
O    -3.635000000     8.044000000    -0.789000000
H    -4.451000000     8.544000000    -0.781000000
H    -3.906000000     7.145000000    -0.973000000
O    -3.398000000     6.901000000    -4.730000000
H    -4.016000000     6.234000000    -4.429000000
H    -2.677000000     6.403000000    -5.115000000
O    -5.238000000     4.802000000    -4.654000000
H    -6.148000000     5.083000000    -4.753000000
H    -5.181000000     4.489000000    -3.751000000
O    -1.986000000     4.181000000    -3.027000000
H    -1.408000000     3.419000000    -2.989000000
H    -1.782000000     4.595000000    -3.866000000
O    -6.985000000    -1.519000000    -4.000000000
H    -6.138000000    -1.603000000    -3.562000000
H    -7.074000000    -0.581000000    -4.171000000
O    -1.093000000     4.817000000    -5.550000000
H    -1.760000000     4.341000000    -6.044000000
H    -0.342000000     4.862000000    -6.143000000
O    -6.508000000     4.984000000    -1.463000000
H    -5.579000000     4.754000000    -1.446000000
H    -6.921000000     4.354000000    -0.873000000
O    -8.023000000     2.693000000     3.680000000
H    -8.385000000     2.059000000     4.300000000
H    -7.208000000     2.987000000     4.087000000
O    -7.861000000     2.054000000    -1.912000000
H    -6.965000000     1.727000000    -1.834000000
H    -8.079000000     2.366000000    -1.034000000
