215
-1451.05480
C     4.186000000    -2.860000000    -1.672000000
H     3.856000000    -3.831000000    -1.314000000
C     4.231000000    -1.771000000    -0.835000000
C     4.700000000    -0.518000000    -1.282000000
H     4.643000000     0.360000000    -0.644000000
C     3.693000000    -1.890000000     0.594000000
O     3.378000000    -3.244000000     0.996000000
H     2.692000000    -1.438000000     0.527000000
O     4.489000000    -1.193000000     1.648000000
C     3.839000000    -0.505000000     2.631000000
C     3.842000000     0.831000000     2.493000000
H     4.436000000     1.401000000     1.783000000
C     2.931000000     1.590000000     3.231000000
O     2.830000000     2.947000000     2.899000000
C     2.151000000     0.987000000     4.244000000
C     1.256000000     1.838000000     5.160000000
H     1.185000000     1.360000000     6.139000000
C    -0.121000000     2.134000000     4.522000000
C    -1.132000000     1.177000000     4.681000000
H    -0.939000000     0.346000000     5.353000000
H     1.806000000     2.768000000     5.316000000
C     2.173000000    -0.359000000     4.351000000
H     1.622000000    -0.921000000     5.101000000
C     3.125000000    -1.119000000     3.619000000
C     3.024000000    -2.565000000     3.716000000
H     2.714000000    -2.774000000     4.742000000
H     3.947000000    -3.125000000     3.557000000
C     1.965000000    -3.202000000     2.828000000
C     0.703000000    -3.430000000     3.380000000
H     0.416000000    -3.125000000     4.382000000
C     2.134000000    -3.425000000     1.457000000
C     1.205000000    -3.995000000     0.610000000
H     1.412000000    -4.210000000    -0.435000000
C     0.007000000    -4.283000000     1.161000000
O    -0.943000000    -4.774000000     0.363000000
C    -1.880000000    -3.901000000    -0.261000000
C    -2.046000000    -4.162000000    -1.801000000
C    -3.115000000    -3.500000000    -2.525000000
H    -3.876000000    -3.048000000    -1.895000000
C    -1.047000000    -4.750000000    -2.544000000
H    -0.298000000    -5.393000000    -2.091000000
O    -3.159000000    -3.811000000     0.419000000
H    -1.586000000    -2.842000000    -0.286000000
C    -0.302000000    -4.056000000     2.521000000
C    -1.774000000    -4.310000000     2.990000000
H    -1.788000000    -4.452000000     4.072000000
H    -2.272000000    -5.156000000     2.512000000
C    -2.643000000    -3.103000000     2.702000000
C    -2.798000000    -2.138000000     3.686000000
H    -2.324000000    -2.336000000     4.644000000
C    -3.322000000    -2.943000000     1.479000000
C    -3.925000000    -1.707000000     1.282000000
H    -4.238000000    -1.498000000     0.263000000
C    -4.013000000    -0.699000000     2.230000000
O    -4.722000000     0.411000000     1.957000000
C    -3.949000000     1.513000000     1.497000000
C    -4.462000000     2.086000000     0.245000000
C    -5.180000000     1.319000000    -0.668000000
H    -5.559000000     0.322000000    -0.459000000
C    -3.871000000     3.239000000    -0.243000000
H    -3.347000000     3.820000000     0.511000000
O    -3.824000000     2.466000000     2.529000000
H    -2.956000000     1.107000000     1.255000000
C    -3.434000000    -0.921000000     3.445000000
C    -3.346000000     0.250000000     4.444000000
H    -3.207000000    -0.122000000     5.462000000
H    -4.339000000     0.679000000     4.592000000
C    -2.368000000     1.329000000     4.178000000
C    -2.597000000     2.345000000     3.249000000
C    -1.556000000     3.264000000     2.976000000
H    -1.796000000     4.103000000     2.327000000
C    -0.308000000     3.144000000     3.542000000
O     0.700000000     3.936000000     3.105000000
C     1.651000000     3.373000000     2.191000000
H     1.195000000     2.485000000     1.728000000
C     2.069000000     4.391000000     1.082000000
C     3.263000000     4.215000000     0.326000000
H     3.928000000     3.389000000     0.564000000
C     1.124000000     5.374000000     0.664000000
H     0.265000000     5.546000000     1.307000000
C     1.445000000     6.244000000    -0.406000000
O     0.567000000     7.348000000    -0.715000000
C     2.654000000     6.075000000    -1.075000000
H     2.945000000     6.721000000    -1.899000000
C     3.603000000     5.148000000    -0.657000000
O     4.771000000     5.092000000    -1.319000000
C     5.578000000     3.953000000    -1.335000000
C     5.278000000     2.947000000    -2.254000000
H     4.362000000     3.059000000    -2.828000000
C     6.669000000     3.838000000    -0.470000000
H     6.802000000     4.599000000     0.295000000
C     7.396000000     2.649000000    -0.450000000
H     8.141000000     2.510000000     0.329000000
C     7.076000000     1.637000000    -1.351000000
H     7.697000000     0.746000000    -1.299000000
C     6.108000000     1.800000000    -2.308000000
O     5.822000000     0.687000000    -3.070000000
C     5.243000000    -0.444000000    -2.538000000
C     5.266000000    -1.517000000    -3.380000000
H     5.587000000    -1.469000000    -4.417000000
C     4.695000000    -2.720000000    -2.950000000
O     4.637000000    -3.803000000    -3.874000000
C     3.629000000    -4.770000000    -3.866000000
C     2.366000000    -4.434000000    -4.376000000
H     2.134000000    -3.428000000    -4.715000000
C     3.860000000    -5.994000000    -3.254000000
H     4.858000000    -6.230000000    -2.895000000
C     2.903000000    -6.989000000    -3.284000000
H     3.148000000    -7.994000000    -2.950000000
C     1.630000000    -6.631000000    -3.778000000
H     0.728000000    -7.226000000    -3.668000000
C     1.304000000    -5.342000000    -4.198000000
O     0.052000000    -5.081000000    -4.661000000
C    -1.025000000    -4.660000000    -3.959000000
C    -2.010000000    -3.880000000    -4.618000000
H    -1.923000000    -3.729000000    -5.691000000
C    -3.061000000    -3.312000000    -3.903000000
O    -3.993000000    -2.631000000    -4.633000000
C    -5.128000000    -2.167000000    -4.078000000
C    -5.154000000    -0.813000000    -3.804000000
H    -4.325000000    -0.163000000    -4.071000000
C    -6.121000000    -3.024000000    -3.644000000
H    -6.123000000    -4.092000000    -3.848000000
C    -7.180000000    -2.513000000    -2.889000000
H    -8.014000000    -3.124000000    -2.552000000
C    -7.222000000    -1.100000000    -2.618000000
H    -8.006000000    -0.602000000    -2.055000000
C    -6.171000000    -0.252000000    -2.996000000
O    -6.263000000     1.093000000    -2.831000000
C    -5.432000000     1.764000000    -1.994000000
C    -4.782000000     2.871000000    -2.529000000
H    -4.924000000     3.188000000    -3.559000000
C    -3.910000000     3.603000000    -1.626000000
O    -3.251000000     4.677000000    -2.126000000
C    -2.758000000     5.720000000    -1.390000000
C    -3.531000000     6.555000000    -0.608000000
H    -4.575000000     6.264000000    -0.529000000
C    -3.053000000     7.638000000     0.094000000
H    -3.661000000     8.279000000     0.728000000
C    -1.691000000     7.893000000     0.056000000
H    -1.248000000     8.656000000     0.690000000
C    -0.799000000     7.129000000    -0.696000000
C    -1.342000000     6.001000000    -1.394000000
H    -0.671000000     5.282000000    -1.857000000
C    -1.382000000     1.026000000    -1.979000000
H    -2.319000000     0.720000000    -2.439000000
C    -1.120000000     0.298000000    -0.795000000
H    -1.880000000    -0.400000000    -0.455000000
C     0.041000000     0.468000000    -0.109000000
H     0.336000000    -0.044000000     0.829000000
C     1.016000000     1.343000000    -0.625000000
H     1.969000000     1.533000000    -0.138000000
C     0.781000000     2.068000000    -1.826000000
H     1.595000000     2.655000000    -2.244000000
C    -0.429000000     1.912000000    -2.500000000
C    -0.599000000     2.669000000    -3.812000000
O     0.059000000     3.664000000    -4.075000000
O    -1.469000000     2.271000000    -4.544000000
O    -3.351000000     6.388000000    -4.425000000
H    -4.069000000     6.989000000    -4.624000000
H    -3.744000000     5.725000000    -3.857000000
O     3.346000000     2.181000000    -5.442000000
H     3.967000000     2.904000000    -5.355000000
H     3.799000000     1.542000000    -5.992000000
O     2.625000000     6.001000000    -8.746000000
H     3.239000000     5.456000000    -8.254000000
H     1.809000000     5.950000000    -8.248000000
O     2.392000000     8.265000000    -4.539000000
H     2.300000000     7.376000000    -4.196000000
H     1.830000000     8.283000000    -5.313000000
O    -4.036000000     4.606000000    -7.780000000
H    -4.023000000     5.466000000    -7.360000000
H    -3.522000000     4.047000000    -7.197000000
O    -1.665000000     6.665000000    -9.099000000
H    -1.006000000     6.720000000    -8.407000000
H    -1.870000000     5.732000000    -9.161000000
O    -3.553000000     2.240000000    -5.980000000
H    -3.384000000     1.519000000    -6.586000000
H    -2.707000000     2.404000000    -5.562000000
O    -6.441000000     1.494000000    -5.930000000
H    -5.690000000     1.851000000    -5.454000000
H    -6.689000000     0.714000000    -5.434000000
O    -1.707000000     4.679000000    -5.998000000
H    -2.173000000     5.180000000    -5.329000000
H    -1.390000000     3.901000000    -5.539000000
O     0.894000000     2.275000000    -6.599000000
H     1.728000000     2.000000000    -6.218000000
H     0.528000000     2.885000000    -5.959000000
O     0.434000000    -1.847000000    -5.801000000
H     1.052000000    -1.337000000    -5.278000000
H    -0.380000000    -1.343000000    -5.768000000
O     1.963000000    -0.228000000    -4.361000000
H     2.382000000     0.578000000    -4.661000000
H     1.651000000    -0.022000000    -3.480000000
O     0.131000000     0.624000000    -8.657000000
H     0.726000000    -0.126000000    -8.637000000
H     0.482000000     1.225000000    -8.000000000
O     0.338000000     6.268000000    -7.296000000
H    -0.297000000     5.723000000    -6.833000000
H     0.397000000     7.066000000    -6.771000000
O    -0.220000000     3.299000000    -9.680000000
H    -0.804000000     2.618000000   -10.012000000
H    -0.056000000     3.053000000    -8.770000000
O     1.919000000     5.316000000    -4.750000000
H     2.472000000     4.785000000    -5.324000000
H     1.291000000     4.696000000    -4.381000000
O    -1.762000000    -0.123000000    -5.801000000
H    -1.464000000     0.755000000    -5.564000000
H    -2.156000000    -0.017000000    -6.666000000
O    -2.655000000     0.243000000    -8.230000000
H    -2.837000000    -0.350000000    -8.959000000
H    -1.759000000     0.542000000    -8.384000000
O    -0.558000000     7.104000000    -4.467000000
H    -1.437000000     6.975000000    -4.112000000
H    -0.124000000     6.259000000    -4.348000000
