215
-1464.23548
C    -1.852000000     3.782000000     2.768000000
H    -0.912000000     3.783000000     2.221000000
C    -1.982000000     2.749000000     3.696000000
C    -3.312000000     2.499000000     4.185000000
H    -3.644000000     1.667000000     4.800000000
C    -0.896000000     1.727000000     3.914000000
O     0.323000000     2.412000000     4.277000000
H    -0.719000000     1.143000000     2.999000000
O    -1.111000000     0.800000000     4.936000000
C    -0.820000000    -0.522000000     4.663000000
C    -1.741000000    -1.409000000     4.070000000
H    -2.681000000    -0.949000000     3.777000000
C    -1.333000000    -2.680000000     3.633000000
O    -2.205000000    -3.374000000     2.784000000
C    -0.047000000    -3.147000000     3.908000000
C     0.408000000    -4.519000000     3.325000000
H     1.201000000    -4.994000000     3.905000000
C     0.771000000    -4.364000000     1.821000000
C     2.172000000    -4.191000000     1.542000000
H     2.809000000    -3.990000000     2.400000000
H    -0.415000000    -5.198000000     3.557000000
C     0.872000000    -2.288000000     4.501000000
H     1.850000000    -2.633000000     4.827000000
C     0.525000000    -0.965000000     4.834000000
C     1.600000000    -0.004000000     5.326000000
H     2.397000000    -0.519000000     5.866000000
H     1.291000000     0.770000000     6.032000000
C     2.221000000     0.859000000     4.243000000
C     3.356000000     0.406000000     3.552000000
H     3.758000000    -0.528000000     3.937000000
C     1.534000000     1.982000000     3.813000000
C     2.082000000     2.754000000     2.773000000
H     1.567000000     3.657000000     2.457000000
C     3.234000000     2.315000000     2.099000000
O     3.621000000     2.981000000     0.932000000
C     3.360000000     2.479000000    -0.396000000
C     2.843000000     3.538000000    -1.309000000
C     2.748000000     3.256000000    -2.704000000
H     2.930000000     2.256000000    -3.089000000
C     2.309000000     4.732000000    -0.873000000
H     2.286000000     4.914000000     0.198000000
O     4.449000000     1.647000000    -1.007000000
H     2.505000000     1.796000000    -0.506000000
C     3.856000000     1.148000000     2.537000000
C     5.102000000     0.723000000     1.803000000
H     5.792000000     0.216000000     2.481000000
H     5.719000000     1.575000000     1.508000000
C     4.832000000    -0.201000000     0.615000000
C     4.695000000    -1.550000000     0.896000000
H     4.824000000    -1.911000000     1.913000000
C     4.512000000     0.313000000    -0.662000000
C     4.308000000    -0.577000000    -1.719000000
H     3.913000000    -0.234000000    -2.672000000
C     4.233000000    -1.922000000    -1.480000000
O     3.802000000    -2.610000000    -2.582000000
C     2.411000000    -2.948000000    -2.628000000
C     1.800000000    -2.719000000    -4.013000000
C     2.255000000    -1.693000000    -4.827000000
H     3.079000000    -1.030000000    -4.578000000
C     0.605000000    -3.381000000    -4.322000000
H     0.249000000    -4.106000000    -3.596000000
O     2.038000000    -4.262000000    -2.157000000
H     1.803000000    -2.249000000    -2.035000000
C     4.322000000    -2.422000000    -0.139000000
C     4.037000000    -3.897000000     0.032000000
H     4.579000000    -4.295000000     0.893000000
H     4.376000000    -4.473000000    -0.832000000
C     2.578000000    -4.167000000     0.246000000
C     1.707000000    -4.280000000    -0.837000000
C     0.331000000    -4.467000000    -0.527000000
H    -0.388000000    -4.453000000    -1.342000000
C    -0.137000000    -4.458000000     0.750000000
O    -1.530000000    -4.417000000     0.912000000
C    -2.020000000    -3.164000000     1.365000000
H    -1.318000000    -2.328000000     1.235000000
C    -3.275000000    -2.838000000     0.591000000
C    -4.235000000    -2.019000000     1.158000000
H    -4.166000000    -1.742000000     2.207000000
C    -3.512000000    -3.262000000    -0.750000000
H    -2.702000000    -3.822000000    -1.210000000
C    -4.640000000    -2.884000000    -1.497000000
O    -4.782000000    -3.259000000    -2.805000000
C    -5.552000000    -2.018000000    -0.886000000
H    -6.426000000    -1.707000000    -1.452000000
C    -5.379000000    -1.599000000     0.455000000
O    -6.327000000    -0.755000000     0.982000000
C    -6.264000000    -0.228000000     2.307000000
C    -5.952000000     1.118000000     2.493000000
H    -5.491000000     1.744000000     1.733000000
C    -6.739000000    -0.983000000     3.354000000
H    -6.986000000    -2.029000000     3.192000000
C    -6.793000000    -0.455000000     4.610000000
H    -7.192000000    -1.102000000     5.387000000
C    -6.441000000     0.871000000     4.853000000
H    -6.428000000     1.285000000     5.858000000
C    -6.038000000     1.658000000     3.748000000
O    -5.628000000     2.960000000     3.973000000
C    -4.300000000     3.305000000     3.742000000
C    -4.119000000     4.474000000     3.016000000
H    -5.017000000     4.975000000     2.663000000
C    -2.827000000     4.735000000     2.509000000
O    -2.570000000     5.647000000     1.562000000
C    -1.347000000     6.291000000     1.353000000
C    -0.604000000     6.037000000     0.184000000
H    -0.915000000     5.200000000    -0.436000000
C    -0.925000000     7.329000000     2.279000000
H    -1.585000000     7.560000000     3.111000000
C     0.126000000     8.172000000     1.958000000
H     0.446000000     8.985000000     2.604000000
C     0.865000000     7.847000000     0.799000000
H     1.682000000     8.500000000     0.503000000
C     0.453000000     6.920000000    -0.114000000
O     1.127000000     6.803000000    -1.297000000
C     1.672000000     5.618000000    -1.726000000
C     1.611000000     5.325000000    -3.074000000
H     1.126000000     6.017000000    -3.757000000
C     2.141000000     4.150000000    -3.587000000
O     2.191000000     3.887000000    -4.940000000
C     2.808000000     2.809000000    -5.544000000
C     2.074000000     1.718000000    -5.973000000
H     0.997000000     1.688000000    -5.831000000
C     4.210000000     2.763000000    -5.594000000
H     4.766000000     3.589000000    -5.157000000
C     4.833000000     1.591000000    -6.110000000
H     5.914000000     1.484000000    -6.144000000
C     4.048000000     0.575000000    -6.564000000
H     4.536000000    -0.329000000    -6.918000000
C     2.695000000     0.590000000    -6.459000000
O     1.909000000    -0.353000000    -6.854000000
C     1.517000000    -1.383000000    -5.939000000
C     0.331000000    -2.065000000    -6.250000000
H    -0.305000000    -1.823000000    -7.098000000
C    -0.054000000    -3.117000000    -5.506000000
O    -1.200000000    -3.707000000    -5.886000000
C    -2.107000000    -4.302000000    -5.024000000
C    -2.203000000    -5.650000000    -5.043000000
H    -1.611000000    -6.262000000    -5.719000000
C    -3.189000000    -6.199000000    -4.216000000
H    -3.327000000    -7.277000000    -4.225000000
C    -4.037000000    -5.464000000    -3.485000000
H    -4.824000000    -5.967000000    -2.928000000
C    -3.900000000    -4.072000000    -3.465000000
C    -2.966000000    -3.481000000    -4.248000000
H    -2.923000000    -2.401000000    -4.364000000
C    -1.698000000    -0.011000000    -2.914000000
H    -1.577000000    -0.210000000    -3.975000000
C    -0.542000000     0.077000000    -2.087000000
H     0.443000000    -0.142000000    -2.490000000
C    -0.644000000     0.188000000    -0.682000000
H     0.126000000     0.016000000     0.057000000
C    -1.843000000     0.584000000    -0.185000000
H    -1.944000000     0.567000000     0.898000000
C    -2.964000000     0.699000000    -0.995000000
H    -3.860000000     1.095000000    -0.524000000
C    -2.978000000     0.278000000    -2.365000000
C    -4.287000000     0.329000000    -3.140000000
O    -5.228000000     0.995000000    -2.709000000
O    -4.268000000    -0.229000000    -4.241000000
O    -8.497000000    -0.087000000    -4.854000000
H    -8.228000000     0.569000000    -4.210000000
H    -8.734000000     0.423000000    -5.629000000
O    -1.518000000     2.053000000    -6.479000000
H    -1.799000000     1.147000000    -6.353000000
H    -1.620000000     2.208000000    -7.418000000
O    -7.545000000    -4.201000000    -0.967000000
H    -8.423000000    -3.964000000    -0.667000000
H    -7.476000000    -3.810000000    -1.837000000
O    -5.509000000     2.964000000    -1.075000000
H    -4.663000000     3.406000000    -1.145000000
H    -5.485000000     2.291000000    -1.756000000
O    -7.622000000     2.611000000     0.630000000
H    -6.813000000     2.734000000     0.134000000
H    -8.074000000     1.899000000     0.178000000
O    -3.997000000     0.180000000    -8.783000000
H    -3.848000000    -0.607000000    -8.259000000
H    -3.173000000     0.665000000    -8.727000000
O    -4.472000000    -2.271000000    -8.014000000
H    -4.664000000    -3.167000000    -8.289000000
H    -5.328000000    -1.843000000    -7.976000000
O    -2.531000000    -0.457000000    -6.384000000
H    -2.689000000    -1.328000000    -6.748000000
H    -3.225000000    -0.340000000    -5.735000000
O    -6.328000000    -1.729000000    -4.766000000
H    -6.882000000    -0.948000000    -4.771000000
H    -5.440000000    -1.392000000    -4.651000000
O    -5.036000000     4.698000000    -3.993000000
H    -5.467000000     3.865000000    -4.184000000
H    -4.133000000     4.572000000    -4.285000000
O    -6.352000000     2.462000000    -4.432000000
H    -5.838000000     1.909000000    -3.843000000
H    -6.252000000     2.054000000    -5.292000000
O    -8.635000000    -2.885000000    -3.557000000
H    -9.358000000    -2.325000000    -3.840000000
H    -7.854000000    -2.471000000    -3.924000000
O    -3.001000000     3.731000000    -1.771000000
H    -2.446000000     3.013000000    -1.466000000
H    -2.887000000     3.734000000    -2.721000000
O    -5.729000000     3.694000000    -7.859000000
H    -5.467000000     3.743000000    -8.778000000
H    -5.195000000     2.988000000    -7.495000000
O    -5.977000000    -4.028000000    -6.098000000
H    -6.835000000    -4.171000000    -6.500000000
H    -6.079000000    -3.218000000    -5.598000000
O    -2.544000000     3.633000000    -4.302000000
H    -2.025000000     2.933000000    -4.698000000
H    -2.095000000     4.438000000    -4.559000000
O    -5.365000000     1.214000000    -6.613000000
H    -4.965000000     0.830000000    -5.833000000
H    -4.909000000     0.799000000    -7.345000000
O    -7.310000000     5.393000000    -2.087000000
H    -6.488000000     5.274000000    -2.563000000
H    -7.081000000     5.236000000    -1.171000000
O    -8.100000000     1.022000000    -2.134000000
H    -7.249000000     0.714000000    -2.445000000
H    -8.046000000     1.976000000    -2.194000000
