215
-1457.53618
C    -1.079000000     4.014000000     3.475000000
H    -0.069000000     4.405000000     3.572000000
C    -1.330000000     2.657000000     3.529000000
C    -2.645000000     2.223000000     3.214000000
H    -2.953000000     1.182000000     3.163000000
C    -0.164000000     1.644000000     3.713000000
O     0.996000000     2.288000000     4.318000000
H     0.023000000     1.126000000     2.762000000
O    -0.570000000     0.661000000     4.752000000
C    -0.221000000    -0.638000000     4.530000000
C    -1.193000000    -1.562000000     4.286000000
H    -2.225000000    -1.242000000     4.171000000
C    -0.830000000    -2.802000000     3.833000000
O    -1.841000000    -3.457000000     3.170000000
C     0.453000000    -3.259000000     3.835000000
C     0.861000000    -4.587000000     3.209000000
H     1.787000000    -4.980000000     3.633000000
C     1.126000000    -4.412000000     1.738000000
C     2.441000000    -4.234000000     1.270000000
H     3.322000000    -4.387000000     1.887000000
H     0.159000000    -5.397000000     3.420000000
C     1.422000000    -2.416000000     4.358000000
H     2.464000000    -2.723000000     4.325000000
C     1.108000000    -1.070000000     4.676000000
C     2.191000000    -0.157000000     5.157000000
H     2.922000000    -0.792000000     5.661000000
H     1.753000000     0.350000000     6.019000000
C     2.797000000     0.747000000     4.076000000
C     3.868000000     0.292000000     3.255000000
H     4.286000000    -0.686000000     3.481000000
C     2.185000000     1.898000000     3.747000000
C     2.602000000     2.789000000     2.757000000
H     1.995000000     3.637000000     2.448000000
C     3.576000000     2.326000000     1.885000000
O     3.847000000     3.026000000     0.724000000
C     3.279000000     2.517000000    -0.470000000
C     2.699000000     3.598000000    -1.364000000
C     2.436000000     3.427000000    -2.697000000
H     2.766000000     2.531000000    -3.216000000
C     2.120000000     4.749000000    -0.753000000
H     2.273000000     5.034000000     0.285000000
O     4.375000000     1.931000000    -1.271000000
H     2.485000000     1.802000000    -0.207000000
C     4.250000000     1.137000000     2.198000000
C     5.405000000     0.746000000     1.314000000
H     5.981000000     0.025000000     1.898000000
H     5.931000000     1.646000000     0.990000000
C     4.937000000     0.029000000     0.036000000
C     4.767000000    -1.376000000     0.164000000
H     5.131000000    -2.022000000     0.959000000
C     4.469000000     0.600000000    -1.110000000
C     3.922000000    -0.169000000    -2.147000000
H     3.616000000     0.373000000    -3.038000000
C     3.783000000    -1.509000000    -2.048000000
O     3.087000000    -2.187000000    -3.079000000
C     1.751000000    -2.614000000    -2.854000000
C     0.872000000    -2.408000000    -4.071000000
C     1.126000000    -1.291000000    -4.963000000
H     1.924000000    -0.597000000    -4.713000000
C    -0.203000000    -3.224000000    -4.357000000
H    -0.256000000    -4.120000000    -3.744000000
O     1.768000000    -3.982000000    -2.342000000
H     1.320000000    -1.978000000    -2.066000000
C     4.167000000    -2.142000000    -0.848000000
C     4.044000000    -3.601000000    -0.628000000
H     4.810000000    -3.790000000     0.127000000
H     4.318000000    -4.169000000    -1.520000000
C     2.671000000    -3.992000000    -0.094000000
C     1.589000000    -4.025000000    -0.955000000
C     0.331000000    -4.378000000    -0.505000000
H    -0.515000000    -4.465000000    -1.183000000
C     0.098000000    -4.471000000     0.819000000
O    -1.169000000    -4.718000000     1.246000000
C    -1.929000000    -3.549000000     1.717000000
H    -1.316000000    -2.699000000     1.382000000
C    -3.295000000    -3.428000000     1.035000000
C    -4.259000000    -2.698000000     1.620000000
H    -4.085000000    -2.252000000     2.596000000
C    -3.615000000    -3.941000000    -0.210000000
H    -2.906000000    -4.657000000    -0.619000000
C    -4.817000000    -3.650000000    -0.833000000
O    -5.116000000    -4.235000000    -2.034000000
C    -5.757000000    -2.904000000    -0.238000000
H    -6.751000000    -2.778000000    -0.660000000
C    -5.422000000    -2.390000000     0.989000000
O    -6.362000000    -1.626000000     1.578000000
C    -6.034000000    -0.739000000     2.585000000
C    -5.761000000     0.631000000     2.316000000
H    -5.699000000     1.003000000     1.297000000
C    -6.077000000    -1.180000000     3.886000000
H    -6.436000000    -2.154000000     4.207000000
C    -5.823000000    -0.262000000     4.925000000
H    -5.849000000    -0.704000000     5.918000000
C    -5.428000000     1.032000000     4.630000000
H    -5.044000000     1.736000000     5.364000000
C    -5.459000000     1.510000000     3.320000000
O    -4.991000000     2.659000000     2.934000000
C    -3.709000000     3.097000000     3.120000000
C    -3.416000000     4.446000000     3.152000000
H    -4.211000000     5.161000000     2.956000000
C    -2.119000000     4.872000000     3.253000000
O    -1.832000000     6.246000000     3.137000000
C    -0.789000000     6.764000000     2.393000000
C    -0.443000000     6.241000000     1.183000000
H    -0.987000000     5.377000000     0.808000000
C    -0.288000000     7.986000000     2.875000000
H    -0.587000000     8.397000000     3.836000000
C     0.585000000     8.727000000     2.083000000
H     0.886000000     9.716000000     2.419000000
C     0.952000000     8.178000000     0.867000000
H     1.642000000     8.723000000     0.228000000
C     0.453000000     6.932000000     0.366000000
O     0.700000000     6.697000000    -0.959000000
C     1.364000000     5.675000000    -1.531000000
C     1.313000000     5.510000000    -2.903000000
H     0.778000000     6.255000000    -3.486000000
C     1.858000000     4.396000000    -3.492000000
O     1.655000000     4.290000000    -4.838000000
C     1.907000000     3.176000000    -5.576000000
C     1.028000000     2.095000000    -5.712000000
H     0.059000000     2.117000000    -5.221000000
C     3.035000000     3.167000000    -6.397000000
H     3.778000000     3.960000000    -6.379000000
C     3.288000000     2.114000000    -7.306000000
H     4.206000000     2.051000000    -7.884000000
C     2.344000000     1.069000000    -7.427000000
H     2.469000000     0.183000000    -8.044000000
C     1.226000000     1.080000000    -6.615000000
O     0.236000000     0.168000000    -6.749000000
C     0.227000000    -1.008000000    -5.981000000
C    -0.878000000    -1.846000000    -6.171000000
H    -1.559000000    -1.551000000    -6.966000000
C    -1.088000000    -2.936000000    -5.430000000
O    -2.152000000    -3.751000000    -5.794000000
C    -2.813000000    -4.557000000    -4.779000000
C    -2.490000000    -5.917000000    -4.634000000
H    -1.744000000    -6.355000000    -5.293000000
C    -3.023000000    -6.719000000    -3.694000000
H    -2.774000000    -7.753000000    -3.471000000
C    -3.919000000    -6.193000000    -2.825000000
H    -4.479000000    -6.772000000    -2.095000000
C    -4.201000000    -4.792000000    -2.887000000
C    -3.686000000    -3.957000000    -3.861000000
H    -4.041000000    -2.931000000    -3.809000000
C    -1.090000000     0.051000000    -1.671000000
H    -0.737000000     0.060000000    -2.699000000
C    -0.136000000    -0.158000000    -0.702000000
H     0.922000000    -0.212000000    -0.944000000
C    -0.521000000    -0.330000000     0.616000000
H     0.204000000    -0.568000000     1.360000000
C    -1.880000000    -0.204000000     0.918000000
H    -2.182000000    -0.380000000     1.947000000
C    -2.837000000     0.195000000    -0.079000000
H    -3.865000000     0.494000000     0.108000000
C    -2.417000000     0.225000000    -1.369000000
C    -3.435000000     0.551000000    -2.424000000
O    -4.603000000     0.676000000    -2.135000000
O    -3.149000000     1.031000000    -3.503000000
O    -3.325000000     0.799000000    -8.714000000
H    -3.043000000     0.798000000    -7.799000000
H    -3.253000000    -0.115000000    -8.988000000
O    -5.214000000     0.385000000    -5.004000000
H    -5.250000000    -0.571000000    -5.049000000
H    -4.731000000     0.569000000    -4.199000000
O    -3.268000000     4.186000000    -0.707000000
H    -2.444000000     3.980000000    -0.264000000
H    -3.591000000     4.968000000    -0.259000000
O    -5.607000000     2.889000000    -1.013000000
H    -4.904000000     3.511000000    -1.198000000
H    -5.360000000     2.099000000    -1.493000000
O    -2.637000000     1.105000000    -6.062000000
H    -3.122000000     1.164000000    -5.239000000
H    -1.883000000     0.552000000    -5.856000000
O    -8.897000000     2.731000000    -2.592000000
H    -8.587000000     2.448000000    -3.453000000
H    -8.652000000     3.655000000    -2.542000000
O    -7.822000000     1.662000000    -4.941000000
H    -7.402000000     2.130000000    -5.664000000
H    -7.097000000     1.262000000    -4.462000000
O    -7.230000000     5.204000000    -2.967000000
H    -6.682000000     4.773000000    -3.622000000
H    -6.817000000     6.057000000    -2.833000000
O    -1.319000000     5.808000000    -4.740000000
H    -1.148000000     5.693000000    -3.806000000
H    -1.803000000     6.632000000    -4.796000000
O    -8.642000000     1.415000000    -0.105000000
H    -8.586000000     1.644000000    -1.033000000
H    -8.508000000     2.244000000     0.355000000
O    -3.105000000     3.809000000    -7.024000000
H    -3.274000000     2.879000000    -6.872000000
H    -3.698000000     4.046000000    -7.738000000
O    -5.986000000     1.595000000    -7.686000000
H    -5.581000000     1.198000000    -6.915000000
H    -5.274000000     2.077000000    -8.108000000
O    -5.296000000     3.890000000    -4.540000000
H    -4.691000000     3.991000000    -5.276000000
H    -5.132000000     3.005000000    -4.216000000
O    -7.657000000    -3.353000000    -3.670000000
H    -8.170000000    -3.459000000    -2.869000000
H    -7.218000000    -2.509000000    -3.564000000
O    -7.505000000     3.763000000     0.850000000
H    -7.181000000     4.557000000     1.276000000
H    -6.821000000     3.532000000     0.221000000
O    -0.736000000     3.125000000    -0.323000000
H    -1.029000000     3.246000000    -1.227000000
H    -0.550000000     2.189000000    -0.256000000
O    -1.636000000     3.388000000    -2.807000000
H    -1.911000000     2.728000000    -3.443000000
H    -2.437000000     3.612000000    -2.333000000
O    -5.772000000    -2.427000000    -6.175000000
H    -6.462000000    -2.211000000    -6.802000000
H    -6.051000000    -3.256000000    -5.786000000
O    -6.651000000    -0.745000000    -2.562000000
H    -5.860000000    -0.209000000    -2.616000000
H    -7.096000000    -0.437000000    -1.773000000
