215
-1462.44456
C     3.669000000    -3.253000000    -1.561000000
H     2.855000000    -3.949000000    -1.375000000
C     3.930000000    -2.255000000    -0.607000000
C     4.757000000    -1.169000000    -0.940000000
H     4.848000000    -0.385000000    -0.192000000
C     3.331000000    -2.393000000     0.810000000
O     3.179000000    -3.666000000     1.329000000
H     2.312000000    -1.986000000     0.730000000
O     4.061000000    -1.569000000     1.797000000
C     3.340000000    -0.707000000     2.584000000
C     3.417000000     0.646000000     2.282000000
H     3.905000000     0.984000000     1.372000000
C     2.751000000     1.555000000     3.055000000
O     2.828000000     2.875000000     2.782000000
C     1.919000000     1.108000000     4.088000000
C     1.129000000     2.035000000     4.967000000
H     1.024000000     1.662000000     5.988000000
C    -0.157000000     2.296000000     4.304000000
C    -1.225000000     1.410000000     4.494000000
H    -1.210000000     0.608000000     5.227000000
H     1.577000000     3.030000000     5.004000000
C     1.891000000    -0.202000000     4.447000000
H     1.205000000    -0.526000000     5.225000000
C     2.606000000    -1.131000000     3.644000000
C     2.583000000    -2.592000000     4.047000000
H     2.170000000    -2.644000000     5.056000000
H     3.570000000    -3.052000000     4.135000000
C     1.584000000    -3.319000000     3.230000000
C     0.261000000    -3.419000000     3.644000000
H    -0.004000000    -3.128000000     4.657000000
C     1.919000000    -3.836000000     1.937000000
C     0.883000000    -4.425000000     1.246000000
H     1.082000000    -4.874000000     0.277000000
C    -0.397000000    -4.532000000     1.666000000
O    -1.298000000    -4.967000000     0.682000000
C    -1.988000000    -3.883000000     0.002000000
C    -2.117000000    -4.094000000    -1.523000000
C    -3.029000000    -3.391000000    -2.298000000
H    -3.805000000    -2.732000000    -1.919000000
C    -1.081000000    -4.872000000    -2.091000000
H    -0.455000000    -5.432000000    -1.400000000
O    -3.273000000    -3.614000000     0.684000000
H    -1.276000000    -3.058000000     0.151000000
C    -0.824000000    -3.925000000     2.864000000
C    -2.237000000    -3.966000000     3.363000000
H    -2.191000000    -4.103000000     4.445000000
H    -2.714000000    -4.904000000     3.073000000
C    -3.001000000    -2.745000000     2.946000000
C    -3.090000000    -1.607000000     3.811000000
H    -2.481000000    -1.619000000     4.712000000
C    -3.394000000    -2.603000000     1.655000000
C    -4.126000000    -1.493000000     1.185000000
H    -4.499000000    -1.509000000     0.164000000
C    -4.218000000    -0.333000000     1.964000000
O    -4.703000000     0.815000000     1.355000000
C    -3.744000000     1.868000000     0.949000000
C    -4.149000000     2.517000000    -0.331000000
C    -4.982000000     1.784000000    -1.286000000
H    -5.325000000     0.782000000    -1.040000000
C    -3.650000000     3.765000000    -0.600000000
H    -2.970000000     4.236000000     0.106000000
O    -3.566000000     2.871000000     1.968000000
H    -2.794000000     1.383000000     0.680000000
C    -3.628000000    -0.399000000     3.285000000
C    -3.614000000     0.824000000     4.143000000
H    -3.589000000     0.591000000     5.209000000
H    -4.602000000     1.285000000     4.092000000
C    -2.428000000     1.666000000     3.822000000
C    -2.529000000     2.651000000     2.800000000
C    -1.455000000     3.414000000     2.468000000
H    -1.476000000     4.052000000     1.588000000
C    -0.260000000     3.258000000     3.247000000
O     0.774000000     4.099000000     2.920000000
C     1.698000000     3.478000000     2.064000000
H     1.169000000     2.705000000     1.487000000
C     2.278000000     4.415000000     0.967000000
C     3.520000000     4.193000000     0.443000000
H     4.169000000     3.461000000     0.919000000
C     1.425000000     5.369000000     0.348000000
H     0.483000000     5.614000000     0.834000000
C     1.777000000     5.960000000    -0.898000000
O     0.962000000     6.944000000    -1.487000000
C     3.097000000     5.726000000    -1.378000000
H     3.445000000     6.258000000    -2.260000000
C     3.944000000     4.885000000    -0.730000000
O     5.154000000     4.595000000    -1.300000000
C     5.878000000     3.414000000    -1.215000000
C     5.483000000     2.286000000    -1.885000000
H     4.548000000     2.233000000    -2.437000000
C     7.095000000     3.512000000    -0.516000000
H     7.502000000     4.439000000    -0.120000000
C     7.957000000     2.358000000    -0.524000000
H     8.920000000     2.378000000    -0.019000000
C     7.586000000     1.227000000    -1.180000000
H     8.165000000     0.310000000    -1.108000000
C     6.342000000     1.162000000    -1.822000000
O     6.100000000     0.065000000    -2.625000000
C     5.239000000    -0.967000000    -2.254000000
C     4.923000000    -1.976000000    -3.161000000
H     5.332000000    -1.972000000    -4.168000000
C     4.197000000    -3.102000000    -2.834000000
O     4.099000000    -4.143000000    -3.744000000
C     3.312000000    -5.272000000    -3.543000000
C     1.968000000    -5.098000000    -3.892000000
H     1.623000000    -4.096000000    -4.132000000
C     3.803000000    -6.510000000    -3.164000000
H     4.850000000    -6.700000000    -2.939000000
C     2.936000000    -7.597000000    -3.073000000
H     3.337000000    -8.509000000    -2.638000000
C     1.592000000    -7.400000000    -3.312000000
H     0.961000000    -8.285000000    -3.320000000
C     1.054000000    -6.139000000    -3.607000000
O    -0.269000000    -5.985000000    -3.957000000
C    -1.048000000    -4.959000000    -3.455000000
C    -1.921000000    -4.175000000    -4.256000000
H    -1.922000000    -4.211000000    -5.343000000
C    -2.934000000    -3.370000000    -3.682000000
O    -3.709000000    -2.634000000    -4.543000000
C    -4.848000000    -1.989000000    -4.192000000
C    -4.795000000    -0.565000000    -4.113000000
H    -3.965000000     0.034000000    -4.479000000
C    -6.003000000    -2.713000000    -3.867000000
H    -6.124000000    -3.793000000    -3.914000000
C    -7.134000000    -1.977000000    -3.461000000
H    -8.076000000    -2.454000000    -3.202000000
C    -7.049000000    -0.549000000    -3.221000000
H    -7.881000000     0.015000000    -2.807000000
C    -5.870000000     0.159000000    -3.585000000
O    -5.803000000     1.561000000    -3.508000000
C    -5.160000000     2.344000000    -2.543000000
C    -4.786000000     3.659000000    -2.679000000
H    -5.011000000     4.182000000    -3.605000000
C    -4.050000000     4.391000000    -1.802000000
O    -3.617000000     5.660000000    -2.120000000
C    -2.666000000     6.332000000    -1.344000000
C    -3.011000000     7.260000000    -0.340000000
H    -4.051000000     7.281000000    -0.023000000
C    -2.084000000     7.999000000     0.365000000
H    -2.369000000     8.556000000     1.254000000
C    -0.782000000     7.882000000    -0.044000000
H    -0.039000000     8.507000000     0.446000000
C    -0.409000000     7.001000000    -1.026000000
C    -1.329000000     6.115000000    -1.596000000
H    -0.967000000     5.393000000    -2.324000000
C    -1.667000000     0.321000000    -1.930000000
H    -2.647000000     0.108000000    -2.350000000
C    -1.255000000    -0.236000000    -0.703000000
H    -1.941000000    -0.901000000    -0.185000000
C     0.021000000    -0.074000000    -0.207000000
H     0.396000000    -0.687000000     0.651000000
C     0.891000000     0.743000000    -0.920000000
H     1.897000000     0.978000000    -0.579000000
C     0.460000000     1.492000000    -2.051000000
H     1.084000000     2.280000000    -2.464000000
C    -0.864000000     1.275000000    -2.551000000
C    -1.258000000     2.014000000    -3.837000000
O    -0.524000000     2.809000000    -4.391000000
O    -2.162000000     1.633000000    -4.525000000
O    -5.180000000     5.937000000    -5.727000000
H    -4.992000000     6.654000000    -5.121000000
H    -5.071000000     6.323000000    -6.596000000
O     3.261000000     3.615000000    -4.806000000
H     4.147000000     3.976000000    -4.820000000
H     3.388000000     2.667000000    -4.836000000
O     0.863000000     7.104000000    -7.784000000
H     1.314000000     6.293000000    -8.021000000
H     0.214000000     6.836000000    -7.135000000
O     1.489000000     8.066000000    -4.632000000
H     1.686000000     7.198000000    -4.280000000
H     0.609000000     7.981000000    -5.000000000
O    -5.120000000     3.253000000    -6.933000000
H    -4.928000000     3.907000000    -6.261000000
H    -4.270000000     2.861000000    -7.135000000
O    -2.680000000     5.496000000    -8.177000000
H    -2.576000000     5.142000000    -7.294000000
H    -2.655000000     4.728000000    -8.748000000
O    -2.923000000     1.501000000    -7.012000000
H    -2.460000000     0.682000000    -7.186000000
H    -2.706000000     1.710000000    -6.103000000
O     3.791000000     1.057000000    -5.015000000
H     4.296000000     0.799000000    -5.786000000
H     3.108000000     0.391000000    -4.943000000
O    -5.774000000     0.532000000    -7.068000000
H    -5.310000000     1.361000000    -6.952000000
H    -6.170000000     0.357000000    -6.215000000
O    -2.298000000     4.625000000    -5.587000000
H    -3.005000000     4.521000000    -4.950000000
H    -1.645000000     3.975000000    -5.328000000
O     1.293000000     1.944000000    -6.341000000
H     1.975000000     1.762000000    -5.695000000
H     0.499000000     2.073000000    -5.822000000
O     1.810000000    -1.323000000    -5.166000000
H     2.126000000    -1.598000000    -4.306000000
H     0.878000000    -1.148000000    -5.034000000
O     0.627000000    -1.666000000    -2.725000000
H     0.703000000    -1.073000000    -1.979000000
H    -0.071000000    -1.289000000    -3.261000000
O     1.150000000     0.847000000    -8.793000000
H     1.940000000     0.307000000    -8.761000000
H     1.198000000     1.387000000    -8.004000000
O    -0.994000000     6.945000000    -5.839000000
H    -1.840000000     6.694000000    -6.210000000
H    -0.617000000     6.123000000    -5.525000000
O     1.765000000     4.450000000    -8.185000000
H     1.649000000     3.742000000    -8.818000000
H     1.817000000     4.008000000    -7.338000000
O     0.938000000     4.933000000    -4.491000000
H     1.819000000     4.590000000    -4.342000000
H     0.389000000     4.154000000    -4.583000000
O    -0.737000000    -0.967000000    -5.059000000
H    -1.504000000    -0.571000000    -4.645000000
H    -0.818000000    -0.733000000    -5.984000000
O    -1.376000000    -0.754000000    -7.572000000
H    -1.678000000    -1.498000000    -8.094000000
H    -0.561000000    -0.481000000    -7.992000000
