215
-1423.47704
C    -1.292000000     3.423000000     3.164000000
H    -0.340000000     3.940000000     3.075000000
C    -1.396000000     2.158000000     3.755000000
C    -2.635000000     1.611000000     3.937000000
H    -2.679000000     0.545000000     4.146000000
C    -0.136000000     1.294000000     3.977000000
O     1.040000000     2.034000000     4.348000000
H     0.163000000     0.678000000     3.117000000
O    -0.364000000     0.286000000     4.975000000
C     0.004000000    -0.996000000     4.604000000
C    -0.989000000    -1.755000000     4.054000000
H    -1.962000000    -1.269000000     4.047000000
C    -0.641000000    -2.983000000     3.486000000
O    -1.684000000    -3.653000000     2.938000000
C     0.701000000    -3.369000000     3.380000000
C     1.067000000    -4.704000000     2.785000000
H     2.067000000    -5.001000000     3.110000000
C     1.239000000    -4.582000000     1.282000000
C     2.507000000    -4.300000000     0.829000000
H     3.347000000    -4.168000000     1.507000000
H     0.456000000    -5.524000000     3.166000000
C     1.652000000    -2.576000000     3.984000000
H     2.697000000    -2.844000000     4.121000000
C     1.307000000    -1.382000000     4.536000000
C     2.380000000    -0.352000000     5.003000000
H     3.284000000    -0.922000000     5.231000000
H     2.117000000     0.284000000     5.850000000
C     2.851000000     0.523000000     3.868000000
C     3.990000000     0.275000000     3.081000000
H     4.548000000    -0.648000000     3.214000000
C     2.122000000     1.684000000     3.628000000
C     2.523000000     2.578000000     2.599000000
H     1.902000000     3.466000000     2.520000000
C     3.549000000     2.213000000     1.737000000
O     3.810000000     2.969000000     0.699000000
C     3.309000000     2.575000000    -0.590000000
C     2.720000000     3.696000000    -1.335000000
C     2.589000000     3.659000000    -2.728000000
H     3.041000000     2.877000000    -3.332000000
C     2.172000000     4.810000000    -0.687000000
H     2.311000000     4.905000000     0.387000000
O     4.390000000     1.964000000    -1.350000000
H     2.593000000     1.751000000    -0.457000000
C     4.303000000     1.063000000     2.012000000
C     5.431000000     0.648000000     1.021000000
H     6.120000000     0.038000000     1.610000000
H     5.971000000     1.546000000     0.713000000
C     5.051000000    -0.127000000    -0.235000000
C     4.974000000    -1.546000000    -0.219000000
H     5.184000000    -2.106000000     0.689000000
C     4.479000000     0.572000000    -1.319000000
C     4.030000000    -0.136000000    -2.425000000
H     3.751000000     0.373000000    -3.344000000
C     3.941000000    -1.527000000    -2.385000000
O     3.252000000    -2.094000000    -3.387000000
C     1.862000000    -2.431000000    -3.096000000
C     1.003000000    -1.921000000    -4.179000000
C     1.494000000    -1.044000000    -5.179000000
H     2.536000000    -0.787000000    -5.356000000
C    -0.371000000    -2.199000000    -4.156000000
H    -0.813000000    -2.859000000    -3.414000000
O     1.647000000    -3.847000000    -2.731000000
H     1.489000000    -1.858000000    -2.234000000
C     4.369000000    -2.216000000    -1.265000000
C     4.104000000    -3.750000000    -0.974000000
H     4.855000000    -4.124000000    -0.276000000
H     4.231000000    -4.333000000    -1.889000000
C     2.705000000    -3.997000000    -0.484000000
C     1.572000000    -4.040000000    -1.355000000
C     0.289000000    -4.195000000    -0.812000000
H    -0.504000000    -4.002000000    -1.530000000
C     0.110000000    -4.679000000     0.482000000
O    -1.197000000    -4.761000000     0.925000000
C    -1.846000000    -3.602000000     1.490000000
H    -1.391000000    -2.667000000     1.130000000
C    -3.341000000    -3.464000000     1.193000000
C    -4.235000000    -2.953000000     2.100000000
H    -4.065000000    -2.633000000     3.125000000
C    -3.815000000    -3.792000000    -0.098000000
H    -3.106000000    -4.197000000    -0.815000000
C    -5.136000000    -3.777000000    -0.446000000
O    -5.566000000    -3.975000000    -1.787000000
C    -6.025000000    -3.222000000     0.465000000
H    -7.085000000    -3.332000000     0.252000000
C    -5.620000000    -2.851000000     1.752000000
O    -6.578000000    -2.417000000     2.640000000
C    -6.440000000    -1.428000000     3.558000000
C    -5.901000000    -0.243000000     3.167000000
H    -5.909000000     0.060000000     2.123000000
C    -6.482000000    -1.749000000     4.908000000
H    -6.668000000    -2.780000000     5.199000000
C    -6.087000000    -0.853000000     5.851000000
H    -5.918000000    -1.142000000     6.885000000
C    -5.495000000     0.369000000     5.427000000
H    -5.214000000     1.056000000     6.221000000
C    -5.465000000     0.686000000     4.092000000
O    -5.082000000     1.904000000     3.742000000
C    -3.796000000     2.315000000     3.668000000
C    -3.659000000     3.550000000     3.069000000
H    -4.616000000     3.976000000     2.779000000
C    -2.439000000     4.122000000     2.689000000
O    -2.397000000     5.421000000     2.238000000
C    -1.311000000     6.281000000     1.990000000
C    -0.531000000     6.044000000     0.871000000
H    -0.926000000     5.309000000     0.174000000
C    -0.969000000     7.289000000     2.827000000
H    -1.644000000     7.494000000     3.653000000
C     0.199000000     8.024000000     2.653000000
H     0.454000000     8.820000000     3.348000000
C     0.870000000     7.903000000     1.407000000
H     1.749000000     8.431000000     1.046000000
C     0.392000000     7.004000000     0.466000000
O     0.976000000     6.942000000    -0.772000000
C     1.413000000     5.778000000    -1.391000000
C     1.293000000     5.635000000    -2.745000000
H     0.795000000     6.445000000    -3.271000000
C     1.851000000     4.558000000    -3.405000000
O     1.665000000     4.572000000    -4.802000000
C     2.194000000     3.535000000    -5.619000000
C     1.494000000     2.310000000    -5.778000000
H     0.555000000     2.296000000    -5.231000000
C     3.261000000     3.792000000    -6.532000000
H     3.687000000     4.792000000    -6.554000000
C     3.675000000     2.819000000    -7.485000000
H     4.544000000     3.016000000    -8.108000000
C     2.805000000     1.771000000    -7.699000000
H     3.085000000     1.079000000    -8.489000000
C     1.811000000     1.403000000    -6.797000000
O     0.979000000     0.368000000    -7.157000000
C     0.631000000    -0.585000000    -6.189000000
C    -0.663000000    -1.020000000    -6.192000000
H    -1.256000000    -0.585000000    -6.993000000
C    -1.185000000    -1.754000000    -5.130000000
O    -2.550000000    -1.989000000    -5.041000000
C    -3.149000000    -3.103000000    -4.417000000
C    -2.689000000    -4.336000000    -4.725000000
H    -1.839000000    -4.456000000    -5.391000000
C    -3.282000000    -5.515000000    -4.183000000
H    -3.036000000    -6.511000000    -4.542000000
C    -4.277000000    -5.438000000    -3.226000000
H    -4.829000000    -6.262000000    -2.780000000
C    -4.626000000    -4.167000000    -2.839000000
C    -4.111000000    -3.056000000    -3.446000000
H    -4.352000000    -2.076000000    -3.042000000
C    -1.171000000     0.382000000    -2.590000000
H    -1.210000000     0.556000000    -3.663000000
C     0.068000000     0.139000000    -1.892000000
H     0.977000000     0.228000000    -2.482000000
C     0.089000000    -0.111000000    -0.535000000
H     1.088000000    -0.175000000    -0.009000000
C    -1.107000000    -0.114000000     0.176000000
H    -1.128000000    -0.404000000     1.223000000
C    -2.334000000     0.222000000    -0.449000000
H    -3.212000000     0.247000000     0.190000000
C    -2.382000000     0.416000000    -1.833000000
C    -3.644000000     0.653000000    -2.613000000
O    -4.709000000     0.384000000    -2.112000000
O    -3.558000000     1.328000000    -3.626000000
O    -3.154000000     1.109000000    -8.734000000
H    -3.063000000     0.910000000    -7.802000000
H    -3.372000000     2.041000000    -8.759000000
O    -4.812000000    -0.293000000    -5.993000000
H    -3.946000000    -0.669000000    -5.831000000
H    -5.017000000     0.189000000    -5.192000000
O    -6.043000000     4.397000000    -0.817000000
H    -6.245000000     4.567000000    -1.737000000
H    -5.997000000     5.266000000    -0.418000000
O    -6.327000000     1.469000000    -0.332000000
H    -6.259000000     2.415000000    -0.460000000
H    -5.755000000     1.094000000    -1.002000000
O    -6.173000000     5.335000000    -3.260000000
H    -6.667000000     6.087000000    -3.587000000
H    -5.944000000     4.839000000    -4.046000000
O    -5.867000000    -3.238000000    -7.116000000
H    -6.283000000    -3.035000000    -6.279000000
H    -5.332000000    -4.012000000    -6.937000000
O    -2.528000000     2.036000000    -6.169000000
H    -3.395000000     2.397000000    -6.355000000
H    -2.571000000     1.772000000    -5.250000000
O    -8.123000000     0.815000000    -5.158000000
H    -7.943000000     0.164000000    -4.479000000
H    -7.414000000     1.453000000    -5.072000000
O    -8.595000000     3.357000000    -2.772000000
H    -8.770000000     3.867000000    -3.563000000
H    -7.779000000     2.894000000    -2.961000000
O    -8.705000000     0.169000000     0.149000000
H    -9.250000000     0.860000000    -0.228000000
H    -7.920000000     0.623000000     0.454000000
O    -4.758000000     3.995000000    -5.399000000
H    -4.629000000     4.746000000    -5.979000000
H    -4.013000000     4.025000000    -4.799000000
O    -3.560000000     6.622000000    -1.333000000
H    -3.616000000     6.140000000    -0.508000000
H    -3.692000000     5.958000000    -2.009000000
O    -6.297000000    -0.117000000    -8.201000000
H    -7.235000000    -0.307000000    -8.195000000
H    -6.005000000    -0.320000000    -7.312000000
O    -1.279000000     3.989000000    -7.542000000
H    -1.454000000     3.357000000    -6.845000000
H    -2.115000000     4.077000000    -8.001000000
O    -6.162000000     2.239000000    -3.726000000
H    -5.985000000     3.024000000    -4.245000000
H    -5.300000000     1.951000000    -3.427000000
O    -8.660000000    -2.827000000    -2.516000000
H    -8.490000000    -3.635000000    -2.032000000
H    -7.895000000    -2.279000000    -2.343000000
O    -3.331000000     3.404000000    -0.616000000
H    -3.323000000     2.639000000    -0.041000000
H    -4.260000000     3.581000000    -0.766000000
O    -2.913000000     3.899000000    -3.534000000
H    -3.186000000     2.985000000    -3.452000000
H    -2.453000000     4.086000000    -2.715000000
O    -6.959000000    -0.556000000    -2.559000000
H    -6.033000000    -0.325000000    -2.484000000
H    -7.400000000     0.019000000    -1.933000000
