215
-1453.30218
C    -1.686000000     3.208000000     3.147000000
H    -1.008000000     3.577000000     2.382000000
C    -1.180000000     2.285000000     4.073000000
C    -2.133000000     1.684000000     4.953000000
H    -1.818000000     0.826000000     5.542000000
C     0.223000000     1.724000000     3.974000000
O     1.307000000     2.768000000     4.020000000
H     0.233000000     1.214000000     2.999000000
O     0.542000000     0.630000000     4.883000000
C     1.172000000    -0.474000000     4.410000000
C     0.348000000    -1.584000000     4.164000000
H    -0.708000000    -1.503000000     4.408000000
C     0.884000000    -2.680000000     3.595000000
O     0.068000000    -3.738000000     3.264000000
C     2.254000000    -2.715000000     3.323000000
C     2.929000000    -3.889000000     2.788000000
H     3.984000000    -3.820000000     3.060000000
C     2.863000000    -4.033000000     1.317000000
C     3.817000000    -3.327000000     0.511000000
H     4.716000000    -2.848000000     0.891000000
H     2.543000000    -4.750000000     3.338000000
C     3.033000000    -1.565000000     3.409000000
H     4.108000000    -1.561000000     3.245000000
C     2.469000000    -0.381000000     3.928000000
C     3.388000000     0.757000000     4.160000000
H     4.431000000     0.437000000     4.181000000
H     3.210000000     1.260000000     5.113000000
C     3.319000000     1.805000000     3.111000000
C     4.222000000     1.756000000     2.130000000
H     4.907000000     0.912000000     2.148000000
C     2.331000000     2.804000000     3.147000000
C     2.185000000     3.734000000     2.075000000
H     1.371000000     4.445000000     1.967000000
C     3.144000000     3.600000000     1.035000000
O     2.851000000     4.298000000    -0.132000000
C     2.252000000     3.506000000    -1.163000000
C     1.182000000     4.317000000    -1.973000000
C     0.614000000     3.694000000    -3.074000000
H     0.902000000     2.706000000    -3.424000000
C     0.470000000     5.307000000    -1.278000000
H     0.748000000     5.786000000    -0.343000000
O     3.238000000     3.042000000    -2.074000000
H     1.756000000     2.644000000    -0.693000000
C     4.109000000     2.585000000     1.073000000
C     5.015000000     2.408000000    -0.086000000
H     5.964000000     2.083000000     0.347000000
H     5.226000000     3.327000000    -0.638000000
C     4.474000000     1.383000000    -1.044000000
C     4.740000000     0.026000000    -0.833000000
H     5.424000000    -0.259000000    -0.037000000
C     3.685000000     1.741000000    -2.065000000
C     3.262000000     0.803000000    -2.965000000
H     2.535000000     1.081000000    -3.724000000
C     3.565000000    -0.545000000    -2.824000000
O     3.005000000    -1.521000000    -3.653000000
C     1.871000000    -2.236000000    -3.119000000
C     0.784000000    -2.191000000    -4.100000000
C     0.752000000    -1.291000000    -5.146000000
H     1.555000000    -0.572000000    -5.285000000
C    -0.336000000    -2.995000000    -3.883000000
H    -0.462000000    -3.709000000    -3.074000000
O     2.337000000    -3.560000000    -2.785000000
H     1.572000000    -1.751000000    -2.178000000
C     4.363000000    -0.959000000    -1.751000000
C     4.779000000    -2.421000000    -1.646000000
H     5.790000000    -2.380000000    -1.235000000
H     4.943000000    -2.886000000    -2.620000000
C     3.728000000    -3.258000000    -0.870000000
C     2.650000000    -3.834000000    -1.464000000
C     1.699000000    -4.506000000    -0.703000000
H     0.949000000    -5.028000000    -1.292000000
C     1.785000000    -4.630000000     0.638000000
O     0.689000000    -5.026000000     1.393000000
C    -0.042000000    -3.920000000     1.864000000
H     0.268000000    -2.991000000     1.364000000
C    -1.535000000    -4.144000000     1.515000000
C    -2.397000000    -3.239000000     2.167000000
H    -2.002000000    -2.560000000     2.919000000
C    -2.054000000    -4.985000000     0.539000000
H    -1.410000000    -5.631000000    -0.053000000
C    -3.403000000    -5.112000000     0.428000000
O    -3.881000000    -5.945000000    -0.521000000
C    -4.267000000    -4.316000000     1.204000000
H    -5.347000000    -4.372000000     1.094000000
C    -3.756000000    -3.395000000     2.093000000
O    -4.649000000    -2.505000000     2.620000000
C    -4.566000000    -1.974000000     3.951000000
C    -4.470000000    -0.596000000     4.134000000
H    -4.416000000    -0.002000000     3.225000000
C    -4.872000000    -2.881000000     5.013000000
H    -5.075000000    -3.929000000     4.811000000
C    -4.760000000    -2.315000000     6.300000000
H    -4.845000000    -2.863000000     7.235000000
C    -4.526000000    -0.927000000     6.541000000
H    -4.446000000    -0.573000000     7.566000000
C    -4.391000000    -0.070000000     5.463000000
O    -4.323000000     1.293000000     5.620000000
C    -3.442000000     2.027000000     4.890000000
C    -3.907000000     3.030000000     4.031000000
H    -4.971000000     3.255000000     4.033000000
C    -2.964000000     3.677000000     3.161000000
O    -3.452000000     4.652000000     2.300000000
C    -2.709000000     5.801000000     1.969000000
C    -2.176000000     5.827000000     0.749000000
H    -2.144000000     4.892000000     0.194000000
C    -2.845000000     7.016000000     2.698000000
H    -3.419000000     6.982000000     3.621000000
C    -2.449000000     8.206000000     2.100000000
H    -2.551000000     9.120000000     2.680000000
C    -1.883000000     8.171000000     0.804000000
H    -1.547000000     9.058000000     0.273000000
C    -1.712000000     7.001000000     0.163000000
O    -1.264000000     7.005000000    -1.213000000
C    -0.649000000     5.919000000    -1.869000000
C    -1.141000000     5.328000000    -3.007000000
H    -2.065000000     5.637000000    -3.489000000
C    -0.531000000     4.233000000    -3.576000000
O    -1.128000000     3.810000000    -4.759000000
C    -0.408000000     3.123000000    -5.740000000
C    -0.852000000     1.814000000    -6.049000000
H    -1.774000000     1.394000000    -5.656000000
C     0.554000000     3.644000000    -6.546000000
H     0.753000000     4.703000000    -6.403000000
C     1.224000000     2.875000000    -7.561000000
H     1.975000000     3.267000000    -8.242000000
C     0.873000000     1.543000000    -7.737000000
H     1.211000000     0.918000000    -8.559000000
C    -0.121000000     0.987000000    -6.869000000
O    -0.443000000    -0.301000000    -7.025000000
C    -0.399000000    -1.173000000    -5.948000000
C    -1.555000000    -1.867000000    -5.633000000
H    -2.429000000    -1.801000000    -6.276000000
C    -1.523000000    -2.783000000    -4.609000000
O    -2.666000000    -3.489000000    -4.301000000
C    -2.743000000    -4.730000000    -3.721000000
C    -2.202000000    -5.921000000    -4.261000000
H    -1.636000000    -5.848000000    -5.186000000
C    -2.197000000    -7.082000000    -3.506000000
H    -1.709000000    -7.936000000    -3.968000000
C    -2.670000000    -7.130000000    -2.169000000
H    -2.753000000    -8.084000000    -1.653000000
C    -3.329000000    -5.959000000    -1.745000000
C    -3.296000000    -4.748000000    -2.436000000
H    -3.691000000    -3.825000000    -2.019000000
C    -0.861000000    -0.121000000    -1.680000000
H    -0.744000000     0.008000000    -2.753000000
C     0.224000000    -0.024000000    -0.883000000
H     1.169000000     0.203000000    -1.371000000
C     0.102000000    -0.143000000     0.501000000
H     0.996000000    -0.110000000     1.114000000
C    -1.160000000    -0.375000000     0.995000000
H    -1.355000000    -0.472000000     2.060000000
C    -2.264000000    -0.562000000     0.158000000
H    -3.263000000    -0.615000000     0.581000000
C    -2.160000000    -0.368000000    -1.229000000
C    -3.254000000    -0.471000000    -2.252000000
O    -4.320000000    -1.058000000    -1.983000000
O    -2.995000000    -0.252000000    -3.456000000
O    -3.481000000     1.193000000    -7.812000000
H    -3.706000000     0.536000000    -7.153000000
H    -3.816000000     0.832000000    -8.633000000
O    -5.257000000    -2.805000000    -3.959000000
H    -4.616000000    -3.221000000    -4.536000000
H    -4.736000000    -2.240000000    -3.389000000
O    -5.176000000     6.033000000    -1.578000000
H    -6.085000000     5.746000000    -1.668000000
H    -4.675000000     5.220000000    -1.505000000
O    -5.685000000     2.558000000     0.285000000
H    -5.012000000     3.020000000    -0.214000000
H    -6.064000000     1.940000000    -0.340000000
O    -6.752000000     1.671000000    -3.960000000
H    -6.705000000     1.548000000    -4.909000000
H    -7.429000000     2.337000000    -3.838000000
O    -4.567000000    -0.353000000    -5.875000000
H    -3.951000000    -0.339000000    -5.143000000
H    -5.166000000    -1.070000000    -5.671000000
O    -7.996000000     0.616000000     1.427000000
H    -7.282000000     0.737000000     0.801000000
H    -7.762000000    -0.179000000     1.906000000
O    -3.694000000     3.487000000    -6.491000000
H    -3.616000000     3.166000000    -5.593000000
H    -3.538000000     2.716000000    -7.036000000
O    -4.946000000    -4.059000000    -7.571000000
H    -5.152000000    -3.718000000    -8.441000000
H    -5.616000000    -3.683000000    -7.000000000
O    -1.393000000     2.595000000    -0.243000000
H    -1.582000000     1.787000000     0.234000000
H    -1.012000000     2.301000000    -1.070000000
O    -7.717000000    -1.530000000    -3.943000000
H    -7.575000000    -0.788000000    -3.356000000
H    -6.894000000    -2.018000000    -3.914000000
O    -9.768000000    -2.800000000    -2.754000000
H    -9.297000000    -3.530000000    -2.352000000
H    -9.084000000    -2.273000000    -3.168000000
O    -6.466000000     0.476000000    -1.465000000
H    -6.683000000     0.824000000    -2.329000000
H    -5.612000000     0.060000000    -1.581000000
O    -8.256000000    -3.270000000     0.531000000
H    -7.763000000    -3.042000000    -0.257000000
H    -8.378000000    -4.217000000     0.471000000
O    -3.732000000     3.599000000    -1.473000000
H    -2.808000000     3.523000000    -1.235000000
H    -3.805000000     3.127000000    -2.303000000
O    -7.138000000    -2.610000000    -6.606000000
H    -7.994000000    -2.931000000    -6.892000000
H    -7.327000000    -1.777000000    -6.173000000
O    -3.939000000     2.177000000    -3.866000000
H    -4.885000000     2.081000000    -3.762000000
H    -3.638000000     1.310000000    -4.137000000
O    -6.646000000     1.818000000    -6.551000000
H    -7.436000000     1.371000000    -6.856000000
H    -5.935000000     1.208000000    -6.748000000
O    -6.017000000    -2.978000000    -1.310000000
H    -5.329000000    -2.330000000    -1.460000000
H    -6.313000000    -3.222000000    -2.187000000
