215
-1443.25729
C    -1.194000000     4.154000000     3.431000000
H    -0.227000000     4.649000000     3.425000000
C    -1.262000000     2.780000000     3.644000000
C    -2.540000000     2.210000000     3.778000000
H    -2.587000000     1.135000000     3.928000000
C     0.029000000     1.975000000     3.764000000
O     1.216000000     2.709000000     4.034000000
H     0.087000000     1.422000000     2.815000000
O    -0.044000000     0.943000000     4.813000000
C     0.257000000    -0.372000000     4.627000000
C    -0.743000000    -1.270000000     4.221000000
H    -1.790000000    -0.982000000     4.183000000
C    -0.435000000    -2.668000000     3.913000000
O    -1.423000000    -3.479000000     3.385000000
C     0.942000000    -2.968000000     3.800000000
C     1.310000000    -4.327000000     3.241000000
H     2.257000000    -4.659000000     3.671000000
C     1.388000000    -4.290000000     1.755000000
C     2.586000000    -3.907000000     1.157000000
H     3.388000000    -3.619000000     1.832000000
H     0.647000000    -5.137000000     3.553000000
C     1.991000000    -2.065000000     4.118000000
H     3.034000000    -2.351000000     4.008000000
C     1.598000000    -0.704000000     4.419000000
C     2.701000000     0.255000000     4.693000000
H     3.489000000    -0.436000000     4.998000000
H     2.527000000     0.874000000     5.576000000
C     3.057000000     1.132000000     3.543000000
C     4.174000000     0.780000000     2.774000000
H     4.636000000    -0.155000000     3.081000000
C     2.407000000     2.325000000     3.333000000
C     2.658000000     3.085000000     2.228000000
H     2.214000000     4.065000000     2.080000000
C     3.722000000     2.724000000     1.404000000
O     3.806000000     3.455000000     0.291000000
C     3.292000000     2.794000000    -0.880000000
C     2.361000000     3.667000000    -1.694000000
C     2.219000000     3.392000000    -3.100000000
H     2.875000000     2.627000000    -3.507000000
C     1.551000000     4.679000000    -1.161000000
H     1.610000000     4.934000000    -0.106000000
O     4.365000000     2.240000000    -1.766000000
H     2.713000000     1.902000000    -0.600000000
C     4.540000000     1.582000000     1.633000000
C     5.664000000     1.181000000     0.642000000
H     6.387000000     0.707000000     1.309000000
H     6.088000000     2.103000000     0.239000000
C     5.098000000     0.239000000    -0.533000000
C     4.926000000    -1.061000000    -0.264000000
H     5.467000000    -1.360000000     0.631000000
C     4.546000000     0.850000000    -1.651000000
C     3.918000000     0.017000000    -2.615000000
H     3.466000000     0.383000000    -3.533000000
C     3.844000000    -1.347000000    -2.320000000
O     3.062000000    -2.117000000    -3.205000000
C     1.671000000    -2.404000000    -2.840000000
C     0.687000000    -2.280000000    -4.021000000
C     1.049000000    -1.633000000    -5.212000000
H     1.958000000    -1.036000000    -5.211000000
C    -0.610000000    -2.868000000    -4.034000000
H    -0.907000000    -3.474000000    -3.182000000
O     1.564000000    -3.741000000    -2.292000000
H     1.467000000    -1.646000000    -2.070000000
C     4.236000000    -1.934000000    -1.125000000
C     4.047000000    -3.448000000    -0.822000000
H     4.789000000    -3.727000000    -0.071000000
H     4.238000000    -4.038000000    -1.721000000
C     2.701000000    -3.755000000    -0.235000000
C     1.522000000    -3.880000000    -0.975000000
C     0.303000000    -4.191000000    -0.369000000
H    -0.582000000    -4.206000000    -1.000000000
C     0.267000000    -4.505000000     0.983000000
O    -0.973000000    -4.672000000     1.567000000
C    -1.622000000    -3.481000000     1.997000000
H    -1.281000000    -2.581000000     1.465000000
C    -3.082000000    -3.611000000     1.567000000
C    -4.039000000    -2.774000000     2.174000000
H    -3.681000000    -2.108000000     2.955000000
C    -3.456000000    -4.316000000     0.380000000
H    -2.682000000    -4.756000000    -0.243000000
C    -4.765000000    -4.220000000    -0.110000000
O    -5.163000000    -4.899000000    -1.248000000
C    -5.621000000    -3.314000000     0.521000000
H    -6.647000000    -3.315000000     0.162000000
C    -5.310000000    -2.713000000     1.697000000
O    -6.211000000    -1.803000000     2.225000000
C    -5.858000000    -0.921000000     3.287000000
C    -5.382000000     0.379000000     3.034000000
H    -5.357000000     0.754000000     2.014000000
C    -5.931000000    -1.372000000     4.632000000
H    -6.257000000    -2.396000000     4.796000000
C    -5.712000000    -0.473000000     5.736000000
H    -5.829000000    -0.789000000     6.769000000
C    -5.393000000     0.813000000     5.460000000
H    -5.126000000     1.534000000     6.229000000
C    -5.276000000     1.254000000     4.108000000
O    -5.003000000     2.579000000     3.851000000
C    -3.700000000     3.036000000     3.769000000
C    -3.586000000     4.368000000     3.496000000
H    -4.443000000     5.036000000     3.464000000
C    -2.352000000     4.923000000     3.279000000
O    -2.175000000     6.233000000     3.038000000
C    -1.319000000     6.719000000     2.206000000
C    -1.416000000     6.391000000     0.861000000
H    -2.265000000     5.820000000     0.493000000
C    -0.300000000     7.539000000     2.682000000
H    -0.250000000     7.808000000     3.734000000
C     0.769000000     7.822000000     1.802000000
H     1.679000000     8.217000000     2.244000000
C     0.754000000     7.403000000     0.481000000
H     1.503000000     7.655000000    -0.265000000
C    -0.352000000     6.650000000     0.045000000
O    -0.362000000     6.146000000    -1.291000000
C     0.558000000     5.254000000    -1.886000000
C     0.464000000     5.047000000    -3.228000000
H    -0.334000000     5.501000000    -3.811000000
C     1.242000000     4.058000000    -3.844000000
O     0.999000000     3.830000000    -5.168000000
C     1.427000000     2.793000000    -5.963000000
C     0.654000000     1.625000000    -6.220000000
H    -0.250000000     1.348000000    -5.683000000
C     2.719000000     2.925000000    -6.528000000
H     3.371000000     3.775000000    -6.342000000
C     3.169000000     1.923000000    -7.416000000
H     4.158000000     1.914000000    -7.868000000
C     2.384000000     0.754000000    -7.576000000
H     2.793000000    -0.023000000    -8.217000000
C     1.086000000     0.631000000    -7.067000000
O     0.425000000    -0.524000000    -7.277000000
C     0.129000000    -1.347000000    -6.251000000
C    -1.136000000    -2.005000000    -6.206000000
H    -1.872000000    -1.893000000    -6.998000000
C    -1.478000000    -2.700000000    -5.059000000
O    -2.772000000    -3.315000000    -5.122000000
C    -3.221000000    -4.359000000    -4.290000000
C    -2.779000000    -5.658000000    -4.516000000
H    -2.146000000    -5.866000000    -5.375000000
C    -3.140000000    -6.664000000    -3.644000000
H    -2.733000000    -7.670000000    -3.710000000
C    -3.859000000    -6.406000000    -2.481000000
H    -3.969000000    -7.125000000    -1.673000000
C    -4.292000000    -5.121000000    -2.247000000
C    -4.000000000    -4.080000000    -3.171000000
H    -4.447000000    -3.102000000    -3.016000000
C    -1.403000000     0.271000000    -2.254000000
H    -1.441000000     0.250000000    -3.340000000
C    -0.204000000     0.480000000    -1.553000000
H     0.657000000     0.707000000    -2.178000000
C    -0.231000000     0.338000000    -0.201000000
H     0.725000000     0.514000000     0.383000000
C    -1.389000000     0.048000000     0.492000000
H    -1.455000000     0.015000000     1.576000000
C    -2.613000000    -0.162000000    -0.198000000
H    -3.590000000    -0.286000000     0.262000000
C    -2.572000000     0.043000000    -1.601000000
C    -3.885000000     0.089000000    -2.388000000
O    -4.876000000    -0.264000000    -1.762000000
O    -3.912000000     0.501000000    -3.524000000
O    -5.040000000     1.840000000    -8.039000000
H    -4.579000000     1.629000000    -7.227000000
H    -5.962000000     1.883000000    -7.787000000
O    -4.817000000    -1.260000000    -5.628000000
H    -3.955000000    -1.396000000    -6.022000000
H    -4.663000000    -0.621000000    -4.932000000
O    -5.909000000     1.768000000    -0.302000000
H    -5.923000000     2.331000000    -1.075000000
H    -5.482000000     0.964000000    -0.598000000
O    -9.379000000    -2.925000000     0.441000000
H    -9.100000000    -3.833000000     0.327000000
H    -8.678000000    -2.408000000     0.044000000
O    -5.394000000     3.642000000    -2.724000000
H    -5.678000000     4.308000000    -3.349000000
H    -4.480000000     3.861000000    -2.540000000
O    -2.953000000     1.351000000    -6.139000000
H    -2.422000000     2.142000000    -6.043000000
H    -3.295000000     1.184000000    -5.261000000
O    -7.951000000     0.961000000     1.431000000
H    -7.430000000     0.436000000     2.038000000
H    -7.305000000     1.455000000     0.926000000
O    -9.364000000    -0.132000000    -2.855000000
H    -9.334000000     0.472000000    -3.597000000
H    -9.832000000     0.350000000    -2.173000000
O    -2.149000000     3.903000000    -5.865000000
H    -2.219000000     4.803000000    -5.548000000
H    -2.190000000     3.366000000    -5.074000000
O    -8.381000000     3.880000000    -4.049000000
H    -8.924000000     3.728000000    -4.823000000
H    -7.954000000     3.039000000    -3.888000000
O    -6.432000000    -3.593000000    -5.889000000
H    -6.069000000    -4.026000000    -6.662000000
H    -5.920000000    -2.789000000    -5.803000000
O    -7.156000000    -5.611000000    -3.842000000
H    -6.290000000    -5.344000000    -3.535000000
H    -7.327000000    -5.048000000    -4.597000000
O    -3.762000000     3.423000000     0.595000000
H    -4.461000000     2.794000000     0.418000000
H    -4.136000000     4.023000000     1.240000000
O    -6.972000000     1.609000000    -3.534000000
H    -6.289000000     2.227000000    -3.274000000
H    -6.539000000     0.756000000    -3.523000000
O    -9.194000000    -2.899000000    -3.581000000
H    -8.334000000    -2.896000000    -3.160000000
H    -9.424000000    -1.973000000    -3.659000000
O    -2.888000000     4.441000000    -1.707000000
H    -3.121000000     4.181000000    -0.816000000
H    -2.149000000     5.039000000    -1.597000000
O    -2.272000000     2.674000000    -3.554000000
H    -2.615000000     3.328000000    -2.944000000
H    -2.420000000     1.836000000    -3.115000000
O    -7.222000000     1.544000000    -6.573000000
H    -7.773000000     2.326000000    -6.544000000
H    -7.067000000     1.326000000    -5.654000000
O    -7.321000000    -1.110000000    -0.927000000
H    -7.897000000    -0.353000000    -1.035000000
H    -6.462000000    -0.800000000    -1.213000000
