215
-1451.60364
C    -2.180000000     4.059000000     2.631000000
H    -1.269000000     4.383000000     2.136000000
C    -2.064000000     2.872000000     3.374000000
C    -3.162000000     2.395000000     3.952000000
H    -3.090000000     1.442000000     4.469000000
C    -0.758000000     2.066000000     3.502000000
O     0.334000000     2.972000000     3.815000000
H    -0.652000000     1.556000000     2.533000000
O    -0.921000000     1.069000000     4.566000000
C    -0.245000000    -0.139000000     4.403000000
C    -1.047000000    -1.197000000     4.066000000
H    -2.110000000    -1.043000000     3.897000000
C    -0.513000000    -2.468000000     3.886000000
O    -1.387000000    -3.493000000     3.504000000
C     0.888000000    -2.668000000     3.999000000
C     1.494000000    -3.959000000     3.706000000
H     2.329000000    -4.179000000     4.375000000
C     1.762000000    -4.079000000     2.140000000
C     3.040000000    -3.674000000     1.643000000
H     3.862000000    -3.336000000     2.269000000
H     0.787000000    -4.741000000     3.988000000
C     1.720000000    -1.537000000     4.218000000
H     2.802000000    -1.633000000     4.208000000
C     1.123000000    -0.331000000     4.525000000
C     2.039000000     0.800000000     5.017000000
H     2.880000000     0.279000000     5.481000000
H     1.568000000     1.453000000     5.755000000
C     2.384000000     1.624000000     3.780000000
C     3.614000000     1.261000000     3.200000000
H     4.248000000     0.480000000     3.610000000
C     1.598000000     2.701000000     3.336000000
C     2.130000000     3.455000000     2.290000000
H     1.623000000     4.283000000     1.801000000
C     3.293000000     3.061000000     1.623000000
O     3.543000000     3.706000000     0.424000000
C     3.277000000     2.918000000    -0.690000000
C     2.375000000     3.566000000    -1.785000000
C     2.508000000     3.256000000    -3.129000000
H     3.181000000     2.511000000    -3.544000000
C     1.426000000     4.481000000    -1.350000000
H     1.354000000     4.783000000    -0.309000000
O     4.474000000     2.305000000    -1.134000000
H     2.638000000     2.072000000    -0.398000000
C     4.046000000     1.968000000     2.062000000
C     5.300000000     1.446000000     1.382000000
H     5.925000000     0.937000000     2.119000000
H     5.751000000     2.320000000     0.907000000
C     4.865000000     0.426000000     0.314000000
C     4.986000000    -0.961000000     0.450000000
H     5.376000000    -1.383000000     1.372000000
C     4.596000000     0.965000000    -0.954000000
C     4.285000000     0.058000000    -2.011000000
H     3.766000000     0.429000000    -2.891000000
C     4.170000000    -1.282000000    -1.735000000
O     3.570000000    -2.043000000    -2.676000000
C     2.244000000    -2.580000000    -2.375000000
C     1.258000000    -2.396000000    -3.525000000
C     1.665000000    -1.728000000    -4.682000000
H     2.630000000    -1.229000000    -4.738000000
C    -0.052000000    -2.904000000    -3.522000000
H    -0.463000000    -3.374000000    -2.632000000
O     2.398000000    -3.966000000    -1.950000000
H     1.816000000    -1.959000000    -1.575000000
C     4.618000000    -1.845000000    -0.546000000
C     4.640000000    -3.356000000    -0.203000000
H     5.380000000    -3.620000000     0.555000000
H     4.903000000    -3.897000000    -1.114000000
C     3.262000000    -3.771000000     0.313000000
C     2.230000000    -4.107000000    -0.613000000
C     0.950000000    -4.378000000    -0.083000000
H     0.169000000    -4.573000000    -0.813000000
C     0.714000000    -4.417000000     1.297000000
O    -0.556000000    -4.815000000     1.694000000
C    -1.417000000    -3.745000000     2.037000000
H    -0.920000000    -2.884000000     1.567000000
C    -2.776000000    -3.744000000     1.449000000
C    -3.658000000    -2.685000000     1.745000000
H    -3.405000000    -1.942000000     2.498000000
C    -3.194000000    -4.668000000     0.483000000
H    -2.468000000    -5.432000000     0.218000000
C    -4.408000000    -4.539000000    -0.127000000
O    -4.760000000    -5.365000000    -1.124000000
C    -5.276000000    -3.488000000     0.195000000
H    -6.166000000    -3.339000000    -0.412000000
C    -4.876000000    -2.583000000     1.139000000
O    -5.536000000    -1.313000000     1.314000000
C    -5.792000000    -0.804000000     2.519000000
C    -5.549000000     0.599000000     2.689000000
H    -5.148000000     1.250000000     1.916000000
C    -6.277000000    -1.606000000     3.552000000
H    -6.489000000    -2.648000000     3.328000000
C    -6.687000000    -1.021000000     4.755000000
H    -7.132000000    -1.710000000     5.468000000
C    -6.425000000     0.331000000     4.951000000
H    -6.813000000     0.840000000     5.829000000
C    -5.926000000     1.139000000     3.889000000
O    -5.568000000     2.488000000     4.203000000
C    -4.343000000     3.092000000     3.791000000
C    -4.437000000     4.341000000     3.232000000
H    -5.366000000     4.905000000     3.263000000
C    -3.272000000     4.894000000     2.653000000
O    -3.259000000     6.112000000     2.002000000
C    -2.213000000     6.597000000     1.250000000
C    -1.897000000     6.136000000    -0.009000000
H    -2.615000000     5.414000000    -0.388000000
C    -1.323000000     7.525000000     1.838000000
H    -1.565000000     7.726000000     2.879000000
C    -0.151000000     7.946000000     1.180000000
H     0.368000000     8.791000000     1.625000000
C     0.140000000     7.432000000    -0.065000000
H     1.060000000     7.738000000    -0.557000000
C    -0.687000000     6.460000000    -0.639000000
O    -0.427000000     6.004000000    -1.924000000
C     0.618000000     5.126000000    -2.211000000
C     0.766000000     4.881000000    -3.596000000
H     0.021000000     5.375000000    -4.214000000
C     1.660000000     3.860000000    -4.042000000
O     1.734000000     3.636000000    -5.417000000
C     2.257000000     2.574000000    -6.105000000
C     1.542000000     1.372000000    -6.125000000
H     0.654000000     1.306000000    -5.502000000
C     3.391000000     2.694000000    -6.880000000
H     3.961000000     3.615000000    -6.783000000
C     3.852000000     1.651000000    -7.675000000
H     4.735000000     1.758000000    -8.299000000
C     3.146000000     0.440000000    -7.685000000
H     3.546000000    -0.338000000    -8.332000000
C     2.073000000     0.296000000    -6.823000000
O     1.325000000    -0.845000000    -6.883000000
C     0.795000000    -1.514000000    -5.786000000
C    -0.489000000    -2.109000000    -5.763000000
H    -1.227000000    -1.910000000    -6.536000000
C    -0.891000000    -2.785000000    -4.625000000
O    -2.220000000    -3.158000000    -4.521000000
C    -2.578000000    -4.375000000    -3.945000000
C    -2.105000000    -5.585000000    -4.308000000
H    -1.491000000    -5.556000000    -5.204000000
C    -2.695000000    -6.738000000    -3.794000000
H    -2.463000000    -7.675000000    -4.293000000
C    -3.607000000    -6.712000000    -2.760000000
H    -3.968000000    -7.618000000    -2.280000000
C    -3.877000000    -5.477000000    -2.176000000
C    -3.386000000    -4.341000000    -2.823000000
H    -3.770000000    -3.397000000    -2.445000000
C    -1.007000000     0.747000000    -2.524000000
H    -0.940000000     0.942000000    -3.591000000
C     0.163000000     0.382000000    -1.865000000
H     1.114000000     0.584000000    -2.353000000
C     0.030000000    -0.181000000    -0.518000000
H     0.952000000    -0.511000000     0.066000000
C    -1.190000000    -0.427000000     0.030000000
H    -1.419000000    -0.854000000     1.003000000
C    -2.318000000     0.026000000    -0.636000000
H    -3.286000000    -0.241000000    -0.221000000
C    -2.251000000     0.597000000    -1.891000000
C    -3.511000000     1.040000000    -2.606000000
O    -4.608000000     1.131000000    -2.012000000
O    -3.489000000     1.683000000    -3.651000000
O    -5.215000000     2.411000000    -8.305000000
H    -5.318000000     2.490000000    -7.357000000
H    -4.601000000     3.107000000    -8.538000000
O    -6.745000000     2.684000000    -2.685000000
H    -7.437000000     2.107000000    -2.361000000
H    -5.957000000     2.142000000    -2.676000000
O    -4.868000000     7.025000000    -2.655000000
H    -5.116000000     6.231000000    -2.180000000
H    -4.417000000     7.562000000    -2.003000000
O    -4.929000000    -0.362000000    -6.623000000
H    -4.762000000     0.506000000    -6.990000000
H    -5.184000000    -0.194000000    -5.715000000
O    -6.981000000    -2.264000000    -4.069000000
H    -6.275000000    -2.257000000    -4.715000000
H    -6.673000000    -1.686000000    -3.371000000
O    -8.945000000     0.639000000     1.385000000
H    -9.198000000     0.773000000     2.298000000
H    -8.426000000     1.413000000     1.164000000
O    -2.231000000     0.288000000    -8.437000000
H    -1.555000000     0.334000000    -7.761000000
H    -2.567000000     1.182000000    -8.501000000
O    -7.687000000     4.886000000     0.999000000
H    -7.097000000     4.283000000     0.547000000
H    -7.978000000     5.493000000     0.318000000
O    -4.779000000    -3.053000000    -5.896000000
H    -3.911000000    -3.441000000    -5.788000000
H    -4.663000000    -2.392000000    -6.578000000
O    -1.737000000     5.321000000    -6.404000000
H    -1.701000000     6.116000000    -6.935000000
H    -1.038000000     4.768000000    -6.753000000
O    -5.485000000     3.065000000    -0.121000000
H    -4.888000000     3.601000000    -0.644000000
H    -5.368000000     2.177000000    -0.458000000
O    -7.558000000     4.345000000    -5.061000000
H    -7.336000000     3.749000000    -4.346000000
H    -7.795000000     3.770000000    -5.788000000
O    -8.189000000     0.996000000    -5.097000000
H    -7.918000000     0.132000000    -5.405000000
H    -8.343000000     0.879000000    -4.159000000
O    -4.916000000     2.864000000    -5.638000000
H    -4.428000000     2.374000000    -4.976000000
H    -4.871000000     3.774000000    -5.344000000
O    -4.198000000     4.044000000    -2.132000000
H    -3.585000000     3.439000000    -2.550000000
H    -5.011000000     3.939000000    -2.626000000
O    -8.825000000     0.757000000    -2.393000000
H    -8.685000000    -0.045000000    -1.890000000
H    -9.653000000     1.105000000    -2.064000000
O    -1.869000000     1.743000000    -5.866000000
H    -2.534000000     1.518000000    -5.215000000
H    -1.997000000     2.678000000    -6.027000000
O    -4.342000000     5.601000000    -5.188000000
H    -3.390000000     5.672000000    -5.258000000
H    -4.611000000     6.407000000    -4.748000000
O    -6.349000000    -1.101000000    -1.766000000
H    -5.900000000    -0.258000000    -1.823000000
H    -6.241000000    -1.369000000    -0.854000000
