215
-1455.00033
C     3.570000000    -3.222000000    -1.175000000
H     2.971000000    -4.066000000    -0.844000000
C     3.841000000    -2.213000000    -0.303000000
C     4.654000000    -1.205000000    -0.761000000
H     4.875000000    -0.409000000    -0.055000000
C     3.260000000    -2.149000000     1.123000000
O     2.993000000    -3.486000000     1.714000000
H     2.325000000    -1.582000000     1.007000000
O     4.158000000    -1.475000000     2.034000000
C     3.669000000    -0.590000000     2.958000000
C     3.778000000     0.799000000     2.635000000
H     4.463000000     1.145000000     1.866000000
C     2.954000000     1.718000000     3.206000000
O     2.986000000     2.942000000     2.695000000
C     1.908000000     1.356000000     4.112000000
C     1.050000000     2.396000000     4.826000000
H     0.813000000     2.075000000     5.842000000
C    -0.283000000     2.562000000     4.041000000
C    -1.454000000     1.971000000     4.431000000
H    -1.506000000     1.387000000     5.346000000
H     1.696000000     3.276000000     4.854000000
C     1.840000000     0.002000000     4.459000000
H     0.981000000    -0.299000000     5.053000000
C     2.732000000    -0.942000000     3.965000000
C     2.492000000    -2.390000000     4.430000000
H     2.245000000    -2.441000000     5.493000000
H     3.456000000    -2.898000000     4.361000000
C     1.481000000    -2.996000000     3.535000000
C     0.186000000    -2.990000000     4.006000000
H    -0.053000000    -2.527000000     4.959000000
C     1.766000000    -3.592000000     2.317000000
C     0.737000000    -4.089000000     1.559000000
H     0.958000000    -4.379000000     0.535000000
C    -0.605000000    -4.062000000     1.970000000
O    -1.576000000    -4.646000000     1.202000000
C    -2.219000000    -3.663000000     0.354000000
C    -2.230000000    -4.042000000    -1.126000000
C    -3.190000000    -3.453000000    -1.960000000
H    -3.830000000    -2.680000000    -1.543000000
C    -1.366000000    -4.982000000    -1.673000000
H    -0.590000000    -5.458000000    -1.079000000
O    -3.527000000    -3.413000000     0.924000000
H    -1.617000000    -2.751000000     0.479000000
C    -0.821000000    -3.529000000     3.240000000
C    -2.348000000    -3.514000000     3.634000000
H    -2.346000000    -3.415000000     4.721000000
H    -2.786000000    -4.472000000     3.347000000
C    -3.053000000    -2.313000000     2.993000000
C    -3.203000000    -1.130000000     3.730000000
H    -2.831000000    -1.100000000     4.751000000
C    -3.552000000    -2.339000000     1.748000000
C    -4.231000000    -1.225000000     1.186000000
H    -4.611000000    -1.257000000     0.168000000
C    -4.306000000    -0.022000000     1.873000000
O    -4.892000000     1.109000000     1.237000000
C    -3.804000000     1.943000000     0.741000000
C    -4.157000000     2.520000000    -0.632000000
C    -4.789000000     1.716000000    -1.559000000
H    -5.134000000     0.706000000    -1.354000000
C    -3.669000000     3.731000000    -1.021000000
H    -3.247000000     4.372000000    -0.251000000
O    -3.681000000     2.996000000     1.736000000
H    -2.826000000     1.450000000     0.639000000
C    -3.752000000     0.059000000     3.209000000
C    -3.866000000     1.356000000     4.020000000
H    -3.966000000     0.947000000     5.028000000
H    -4.775000000     1.926000000     3.819000000
C    -2.638000000     2.185000000     3.721000000
C    -2.570000000     2.926000000     2.556000000
C    -1.399000000     3.526000000     2.159000000
H    -1.412000000     4.089000000     1.229000000
C    -0.232000000     3.352000000     2.887000000
O     0.821000000     4.033000000     2.390000000
C     1.956000000     3.332000000     1.791000000
H     1.518000000     2.385000000     1.443000000
C     2.546000000     4.081000000     0.582000000
C     3.910000000     3.856000000     0.193000000
H     4.548000000     3.144000000     0.711000000
C     1.711000000     4.862000000    -0.274000000
H     0.669000000     4.966000000     0.020000000
C     2.267000000     5.374000000    -1.450000000
O     1.456000000     6.023000000    -2.351000000
C     3.595000000     5.266000000    -1.725000000
H     3.996000000     5.661000000    -2.656000000
C     4.416000000     4.476000000    -0.890000000
O     5.814000000     4.423000000    -1.066000000
C     6.431000000     3.264000000    -1.188000000
C     5.915000000     2.206000000    -1.975000000
H     5.058000000     2.403000000    -2.614000000
C     7.618000000     3.042000000    -0.409000000
H     7.931000000     3.830000000     0.271000000
C     8.073000000     1.733000000    -0.304000000
H     8.934000000     1.575000000     0.340000000
C     7.569000000     0.701000000    -1.074000000
H     7.919000000    -0.322000000    -1.187000000
C     6.531000000     0.975000000    -1.890000000
O     5.984000000    -0.123000000    -2.572000000
C     5.159000000    -1.201000000    -2.080000000
C     4.794000000    -2.157000000    -2.978000000
H     5.142000000    -2.213000000    -4.006000000
C     3.908000000    -3.123000000    -2.534000000
O     3.414000000    -4.006000000    -3.468000000
C     2.649000000    -5.135000000    -3.147000000
C     1.290000000    -5.222000000    -3.514000000
H     0.773000000    -4.402000000    -4.007000000
C     3.315000000    -6.212000000    -2.563000000
H     4.398000000    -6.174000000    -2.473000000
C     2.564000000    -7.387000000    -2.228000000
H     2.972000000    -8.321000000    -1.850000000
C     1.211000000    -7.443000000    -2.593000000
H     0.668000000    -8.331000000    -2.279000000
C     0.614000000    -6.347000000    -3.209000000
O    -0.712000000    -6.338000000    -3.614000000
C    -1.512000000    -5.406000000    -3.023000000
C    -2.514000000    -4.861000000    -3.823000000
H    -2.582000000    -5.208000000    -4.850000000
C    -3.321000000    -3.893000000    -3.321000000
O    -4.140000000    -3.247000000    -4.314000000
C    -5.094000000    -2.310000000    -3.961000000
C    -4.888000000    -0.955000000    -4.148000000
H    -3.980000000    -0.659000000    -4.669000000
C    -6.357000000    -2.765000000    -3.479000000
H    -6.549000000    -3.822000000    -3.314000000
C    -7.283000000    -1.753000000    -3.191000000
H    -8.274000000    -1.966000000    -2.799000000
C    -7.033000000    -0.410000000    -3.321000000
H    -7.764000000     0.340000000    -3.028000000
C    -5.851000000    -0.020000000    -3.777000000
O    -5.509000000     1.357000000    -3.813000000
C    -4.905000000     2.163000000    -2.865000000
C    -4.419000000     3.391000000    -3.253000000
H    -4.613000000     3.745000000    -4.263000000
C    -3.799000000     4.247000000    -2.328000000
O    -3.273000000     5.444000000    -2.693000000
C    -2.211000000     6.101000000    -2.119000000
C    -2.435000000     7.253000000    -1.324000000
H    -3.439000000     7.636000000    -1.161000000
C    -1.311000000     7.898000000    -0.772000000
H    -1.427000000     8.819000000    -0.206000000
C    -0.029000000     7.517000000    -1.100000000
H     0.768000000     8.185000000    -0.782000000
C     0.201000000     6.379000000    -1.883000000
C    -0.934000000     5.701000000    -2.405000000
H    -0.745000000     4.775000000    -2.941000000
C    -1.228000000     1.279000000    -3.623000000
H    -2.070000000     1.050000000    -4.271000000
C    -0.987000000     0.475000000    -2.501000000
H    -1.538000000    -0.453000000    -2.373000000
C     0.076000000     0.702000000    -1.695000000
H     0.214000000    -0.092000000    -1.007000000
C     0.889000000     1.796000000    -1.900000000
H     1.627000000     1.969000000    -1.121000000
C     0.717000000     2.597000000    -3.009000000
H     1.382000000     3.448000000    -3.135000000
C    -0.316000000     2.289000000    -3.943000000
C    -0.570000000     3.213000000    -5.105000000
O     0.336000000     3.836000000    -5.634000000
O    -1.672000000     3.217000000    -5.674000000
O    -4.737000000     6.501000000    -5.066000000
H    -3.932000000     6.596000000    -5.576000000
H    -4.440000000     6.440000000    -4.159000000
O     4.524000000     4.741000000    -5.359000000
H     5.025000000     5.556000000    -5.324000000
H     5.159000000     4.081000000    -5.637000000
O    -2.248000000     6.218000000    -9.346000000
H    -1.898000000     5.343000000    -9.181000000
H    -2.686000000     6.459000000    -8.530000000
O     4.238000000     1.414000000    -5.657000000
H     4.594000000     0.799000000    -6.298000000
H     4.926000000     1.499000000    -4.998000000
O    -5.505000000     4.517000000    -6.871000000
H    -4.798000000     3.882000000    -6.986000000
H    -5.131000000     5.193000000    -6.306000000
O    -1.419000000     3.667000000   -10.787000000
H    -0.963000000     3.543000000    -9.955000000
H    -1.154000000     2.917000000   -11.319000000
O    -3.899000000     2.400000000    -6.556000000
H    -3.075000000     2.845000000    -6.358000000
H    -4.256000000     2.164000000    -5.700000000
O     1.941000000     2.156000000    -7.116000000
H     1.248000000     2.625000000    -6.652000000
H     2.694000000     2.196000000    -6.527000000
O    -2.291000000     5.996000000    -6.027000000
H    -1.920000000     5.122000000    -5.905000000
H    -1.541000000     6.587000000    -5.958000000
O     2.831000000     4.681000000    -8.594000000
H     2.720000000     3.895000000    -8.059000000
H     2.524000000     5.396000000    -8.035000000
O     0.438000000    -1.062000000    -6.680000000
H     0.993000000    -0.750000000    -5.965000000
H    -0.265000000    -0.415000000    -6.737000000
O     2.109000000    -0.175000000    -4.536000000
H     2.876000000     0.345000000    -4.776000000
H     1.640000000     0.369000000    -3.902000000
O    -0.699000000     8.111000000    -5.555000000
H    -1.262000000     8.672000000    -5.021000000
H     0.048000000     7.914000000    -4.990000000
O     1.594000000     8.072000000    -7.472000000
H     1.349000000     7.712000000    -8.325000000
H     1.903000000     7.316000000    -6.973000000
O    -0.376000000     3.252000000    -8.226000000
H    -0.615000000     3.428000000    -7.316000000
H     0.558000000     3.047000000    -8.194000000
O     2.113000000     5.779000000    -6.149000000
H     2.936000000     5.376000000    -5.873000000
H     1.438000000     5.159000000    -5.872000000
O     1.665000000     0.016000000    -8.983000000
H     1.835000000     0.542000000    -8.202000000
H     1.018000000    -0.631000000    -8.700000000
O    -1.619000000     0.843000000    -7.407000000
H    -2.542000000     1.070000000    -7.291000000
H    -1.242000000     1.597000000    -7.861000000
O    -0.998000000    -0.567000000   -10.138000000
H    -0.916000000    -0.037000000    -9.345000000
H    -0.931000000    -1.471000000    -9.829000000
