215
-1458.77944
C    -3.466000000     1.786000000     2.029000000
H    -2.708000000     2.530000000     1.800000000
C    -3.187000000     0.680000000     2.828000000
C    -4.237000000    -0.242000000     3.042000000
H    -4.152000000    -1.157000000     3.622000000
C    -1.808000000     0.385000000     3.387000000
O    -1.313000000     1.581000000     4.057000000
H    -1.117000000     0.183000000     2.555000000
O    -1.826000000    -0.693000000     4.373000000
C    -0.865000000    -1.629000000     4.123000000
C    -1.124000000    -2.841000000     3.540000000
H    -2.143000000    -3.069000000     3.240000000
C    -0.127000000    -3.723000000     3.240000000
O    -0.329000000    -4.730000000     2.442000000
C     1.224000000    -3.383000000     3.603000000
C     2.384000000    -4.241000000     3.016000000
H     3.168000000    -4.281000000     3.775000000
C     2.879000000    -3.748000000     1.659000000
C     3.925000000    -2.827000000     1.538000000
H     4.335000000    -2.394000000     2.447000000
H     1.937000000    -5.227000000     2.875000000
C     1.471000000    -2.233000000     4.321000000
H     2.457000000    -2.029000000     4.730000000
C     0.405000000    -1.394000000     4.586000000
C     0.756000000    -0.122000000     5.356000000
H     1.532000000    -0.200000000     6.121000000
H    -0.078000000     0.189000000     5.988000000
C     1.071000000     1.001000000     4.368000000
C     2.405000000     1.299000000     4.037000000
H     3.155000000     0.621000000     4.436000000
C     0.032000000     1.828000000     3.907000000
C     0.292000000     2.976000000     3.166000000
H    -0.461000000     3.745000000     3.010000000
C     1.646000000     3.197000000     2.798000000
O     1.825000000     4.284000000     2.023000000
C     1.842000000     3.947000000     0.605000000
C     1.029000000     4.856000000    -0.332000000
C     1.381000000     5.047000000    -1.641000000
H     2.305000000     4.567000000    -1.955000000
C    -0.146000000     5.364000000     0.146000000
H    -0.404000000     5.178000000     1.186000000
O     3.252000000     3.939000000     0.257000000
H     1.525000000     2.896000000     0.535000000
C     2.697000000     2.383000000     3.255000000
C     4.200000000     2.709000000     2.866000000
H     4.900000000     2.397000000     3.645000000
H     4.320000000     3.792000000     2.789000000
C     4.363000000     2.057000000     1.487000000
C     4.896000000     0.703000000     1.368000000
H     5.261000000     0.185000000     2.251000000
C     3.943000000     2.663000000     0.313000000
C     4.062000000     2.055000000    -0.926000000
H     3.629000000     2.579000000    -1.774000000
C     4.672000000     0.788000000    -1.031000000
O     4.557000000     0.025000000    -2.158000000
C     3.414000000    -0.718000000    -2.300000000
C     2.670000000    -0.388000000    -3.598000000
C     2.893000000     0.807000000    -4.338000000
H     3.602000000     1.611000000    -4.153000000
C     1.811000000    -1.376000000    -4.101000000
H     1.595000000    -2.290000000    -3.553000000
O     3.707000000    -2.154000000    -2.150000000
H     2.644000000    -0.485000000    -1.550000000
C     5.115000000     0.130000000     0.124000000
C     5.519000000    -1.399000000     0.116000000
H     6.204000000    -1.671000000     0.922000000
H     5.935000000    -1.534000000    -0.884000000
C     4.333000000    -2.346000000     0.256000000
C     3.603000000    -2.714000000    -0.885000000
C     2.582000000    -3.673000000    -0.718000000
H     2.179000000    -3.977000000    -1.680000000
C     2.152000000    -4.157000000     0.509000000
O     1.014000000    -4.967000000     0.585000000
C    -0.246000000    -4.351000000     1.044000000
H    -0.089000000    -3.269000000     0.928000000
C    -1.409000000    -4.808000000     0.134000000
C    -2.660000000    -4.860000000     0.679000000
H    -2.730000000    -4.640000000     1.742000000
C    -1.121000000    -4.957000000    -1.226000000
H    -0.136000000    -4.830000000    -1.668000000
C    -2.264000000    -5.198000000    -2.045000000
O    -2.160000000    -5.431000000    -3.360000000
C    -3.527000000    -5.202000000    -1.495000000
H    -4.401000000    -5.459000000    -2.088000000
C    -3.748000000    -5.073000000    -0.147000000
O    -5.093000000    -5.097000000     0.232000000
C    -5.611000000    -4.448000000     1.360000000
C    -5.820000000    -3.074000000     1.430000000
H    -5.618000000    -2.392000000     0.608000000
C    -5.906000000    -5.155000000     2.538000000
H    -5.774000000    -6.234000000     2.553000000
C    -6.389000000    -4.555000000     3.671000000
H    -6.631000000    -5.172000000     4.532000000
C    -6.587000000    -3.144000000     3.732000000
H    -6.805000000    -2.649000000     4.675000000
C    -6.297000000    -2.393000000     2.572000000
O    -6.479000000    -1.018000000     2.656000000
C    -5.542000000    -0.033000000     2.503000000
C    -5.779000000     1.112000000     1.711000000
H    -6.740000000     1.288000000     1.234000000
C    -4.685000000     1.960000000     1.472000000
O    -4.981000000     3.066000000     0.613000000
C    -4.609000000     4.329000000     1.002000000
C    -3.601000000     4.892000000     0.178000000
H    -3.221000000     4.326000000    -0.669000000
C    -5.190000000     5.015000000     2.083000000
H    -5.816000000     4.400000000     2.724000000
C    -4.786000000     6.273000000     2.429000000
H    -5.140000000     6.787000000     3.320000000
C    -3.739000000     6.820000000     1.716000000
H    -3.322000000     7.807000000     1.895000000
C    -3.138000000     6.144000000     0.599000000
O    -2.074000000     6.754000000    -0.154000000
C    -0.943000000     6.128000000    -0.664000000
C    -0.527000000     6.414000000    -1.968000000
H    -1.131000000     7.025000000    -2.633000000
C     0.638000000     5.856000000    -2.485000000
O     0.950000000     6.132000000    -3.846000000
C     1.833000000     5.315000000    -4.492000000
C     1.680000000     3.987000000    -4.827000000
H     0.798000000     3.466000000    -4.461000000
C     2.927000000     6.020000000    -4.849000000
H     2.997000000     7.086000000    -4.647000000
C     3.953000000     5.427000000    -5.551000000
H     4.816000000     6.047000000    -5.778000000
C     3.836000000     4.114000000    -5.948000000
H     4.644000000     3.586000000    -6.449000000
C     2.633000000     3.408000000    -5.659000000
O     2.339000000     2.181000000    -6.232000000
C     2.213000000     0.995000000    -5.539000000
C     1.429000000    -0.056000000    -6.022000000
H     0.826000000     0.105000000    -6.912000000
C     1.296000000    -1.268000000    -5.384000000
O     0.422000000    -2.237000000    -6.004000000
C     0.185000000    -3.514000000    -5.444000000
C     0.990000000    -4.579000000    -5.875000000
H     1.819000000    -4.269000000    -6.506000000
C     0.764000000    -5.879000000    -5.511000000
H     1.387000000    -6.707000000    -5.839000000
C    -0.274000000    -6.154000000    -4.609000000
H    -0.508000000    -7.174000000    -4.315000000
C    -1.096000000    -5.141000000    -4.139000000
C    -0.879000000    -3.793000000    -4.551000000
H    -1.363000000    -2.953000000    -4.060000000
C    -1.171000000     0.793000000    -1.690000000
H    -0.974000000     1.594000000    -2.399000000
C    -0.050000000     0.376000000    -0.945000000
H     0.950000000     0.799000000    -0.982000000
C    -0.295000000    -0.617000000     0.081000000
H     0.545000000    -0.963000000     0.698000000
C    -1.567000000    -1.188000000     0.233000000
H    -1.729000000    -1.957000000     0.984000000
C    -2.609000000    -0.786000000    -0.608000000
H    -3.575000000    -1.280000000    -0.543000000
C    -2.450000000     0.244000000    -1.517000000
C    -3.645000000     0.803000000    -2.274000000
O    -4.696000000     0.129000000    -2.364000000
O    -3.487000000     1.833000000    -2.894000000
O    -4.843000000    -2.589000000    -3.148000000
H    -5.190000000    -2.448000000    -4.029000000
H    -4.569000000    -1.719000000    -2.857000000
O    -0.556000000     1.861000000    -7.686000000
H    -0.707000000     1.027000000    -8.129000000
H    -1.424000000     2.138000000    -7.392000000
O    -7.141000000    -3.088000000    -5.425000000
H    -7.102000000    -3.925000000    -4.962000000
H    -8.072000000    -2.864000000    -5.435000000
O    -4.069000000     0.138000000    -7.579000000
H    -3.519000000    -0.645000000    -7.543000000
H    -4.201000000     0.380000000    -6.663000000
O    -1.775000000     2.001000000    -4.851000000
H    -2.220000000     2.094000000    -4.008000000
H    -1.402000000     1.120000000    -4.828000000
O    -2.782000000    -2.574000000    -7.581000000
H    -2.617000000    -3.066000000    -8.385000000
H    -2.907000000    -3.246000000    -6.910000000
O    -9.414000000    -3.817000000    -3.552000000
H    -9.825000000    -4.212000000    -2.782000000
H    -8.752000000    -3.226000000    -3.193000000
O    -4.053000000    -4.365000000    -5.924000000
H    -4.321000000    -4.519000000    -5.018000000
H    -4.865000000    -4.138000000    -6.379000000
O    -5.239000000     2.962000000    -8.833000000
H    -5.144000000     3.024000000    -9.784000000
H    -5.032000000     2.050000000    -8.631000000
O    -4.811000000     4.723000000    -6.042000000
H    -5.203000000     3.891000000    -6.308000000
H    -4.572000000     4.592000000    -5.124000000
O    -7.406000000    -2.763000000    -1.840000000
H    -6.684000000    -2.525000000    -2.421000000
H    -7.518000000    -2.001000000    -1.272000000
O    -7.915000000     3.371000000    -2.898000000
H    -8.145000000     3.942000000    -2.165000000
H    -7.516000000     2.604000000    -2.487000000
O    -7.190000000    -0.449000000    -6.499000000
H    -7.767000000    -0.388000000    -7.260000000
H    -6.316000000    -0.269000000    -6.845000000
O    -5.734000000     6.649000000    -2.924000000
H    -5.428000000     5.784000000    -2.649000000
H    -5.009000000     7.237000000    -2.714000000
O    -4.838000000     0.916000000    -5.175000000
H    -5.427000000     0.358000000    -4.668000000
H    -4.137000000     1.142000000    -4.564000000
O    -4.978000000     3.757000000    -3.581000000
H    -4.387000000     3.041000000    -3.349000000
H    -5.805000000     3.533000000    -3.155000000
O    -1.883000000     4.260000000    -6.273000000
H    -1.787000000     3.480000000    -5.727000000
H    -2.827000000     4.341000000    -6.410000000
O    -7.002000000     1.130000000    -1.825000000
H    -6.092000000     0.930000000    -2.042000000
H    -7.200000000     0.563000000    -1.079000000
O    -7.956000000    -0.738000000     0.139000000
H    -8.870000000    -0.625000000     0.398000000
H    -7.540000000    -1.147000000     0.898000000
