215
-1453.66610
C    -3.430000000     2.439000000     2.943000000
H    -2.554000000     3.041000000     2.718000000
C    -3.233000000     1.163000000     3.513000000
C    -4.297000000     0.309000000     3.500000000
H    -4.310000000    -0.707000000     3.887000000
C    -1.848000000     0.600000000     3.866000000
O    -1.039000000     1.619000000     4.483000000
H    -1.427000000     0.280000000     2.901000000
O    -1.931000000    -0.585000000     4.702000000
C    -1.017000000    -1.538000000     4.376000000
C    -1.466000000    -2.562000000     3.580000000
H    -2.536000000    -2.487000000     3.400000000
C    -0.636000000    -3.534000000     3.020000000
O    -1.278000000    -4.386000000     2.166000000
C     0.699000000    -3.579000000     3.354000000
C     1.657000000    -4.591000000     2.683000000
H     2.512000000    -4.761000000     3.342000000
C     2.175000000    -4.134000000     1.309000000
C     3.378000000    -3.417000000     1.276000000
H     3.835000000    -3.102000000     2.210000000
H     1.137000000    -5.532000000     2.491000000
C     1.205000000    -2.575000000     4.194000000
H     2.271000000    -2.563000000     4.406000000
C     0.348000000    -1.530000000     4.666000000
C     0.962000000    -0.372000000     5.441000000
H     1.832000000    -0.838000000     5.909000000
H     0.352000000    -0.085000000     6.300000000
C     1.293000000     0.727000000     4.496000000
C     2.697000000     0.927000000     4.150000000
H     3.449000000     0.389000000     4.721000000
C     0.303000000     1.632000000     3.998000000
C     0.685000000     2.728000000     3.223000000
H    -0.041000000     3.443000000     2.843000000
C     2.029000000     2.810000000     2.838000000
O     2.299000000     3.852000000     1.935000000
C     2.478000000     3.535000000     0.556000000
C     1.764000000     4.447000000    -0.392000000
C     2.444000000     4.986000000    -1.497000000
H     3.521000000     4.865000000    -1.580000000
C     0.370000000     4.612000000    -0.299000000
H    -0.133000000     4.252000000     0.594000000
O     3.880000000     3.464000000     0.296000000
H     2.106000000     2.509000000     0.423000000
C     3.031000000     2.013000000     3.335000000
C     4.497000000     2.128000000     2.867000000
H     5.201000000     1.642000000     3.546000000
H     4.840000000     3.165000000     2.856000000
C     4.638000000     1.491000000     1.493000000
C     4.911000000     0.103000000     1.412000000
H     4.983000000    -0.399000000     2.374000000
C     4.378000000     2.189000000     0.288000000
C     4.402000000     1.529000000    -0.928000000
H     4.145000000     2.050000000    -1.846000000
C     4.592000000     0.128000000    -0.958000000
O     4.509000000    -0.509000000    -2.176000000
C     3.264000000    -1.200000000    -2.466000000
C     2.654000000    -0.839000000    -3.796000000
C     3.062000000     0.303000000    -4.459000000
H     3.969000000     0.841000000    -4.197000000
C     1.475000000    -1.490000000    -4.131000000
H     1.272000000    -2.415000000    -3.599000000
O     3.468000000    -2.616000000    -2.386000000
H     2.564000000    -0.960000000    -1.653000000
C     4.865000000    -0.589000000     0.221000000
C     5.143000000    -2.060000000     0.137000000
H     5.800000000    -2.424000000     0.930000000
H     5.633000000    -2.339000000    -0.798000000
C     3.831000000    -2.839000000     0.053000000
C     3.118000000    -3.115000000    -1.138000000
C     1.895000000    -3.888000000    -0.978000000
H     1.193000000    -3.945000000    -1.806000000
C     1.397000000    -4.316000000     0.206000000
O     0.129000000    -4.948000000     0.272000000
C    -1.046000000    -4.162000000     0.745000000
H    -0.871000000    -3.113000000     0.462000000
C    -2.308000000    -4.556000000    -0.032000000
C    -3.592000000    -4.148000000     0.487000000
H    -3.697000000    -3.792000000     1.508000000
C    -2.166000000    -4.814000000    -1.387000000
H    -1.185000000    -4.956000000    -1.832000000
C    -3.291000000    -4.812000000    -2.206000000
O    -3.153000000    -5.008000000    -3.561000000
C    -4.586000000    -4.603000000    -1.659000000
H    -5.481000000    -4.634000000    -2.276000000
C    -4.682000000    -4.224000000    -0.334000000
O    -5.838000000    -3.734000000     0.085000000
C    -6.143000000    -3.293000000     1.359000000
C    -6.287000000    -1.953000000     1.650000000
H    -6.304000000    -1.294000000     0.785000000
C    -6.184000000    -4.142000000     2.426000000
H    -5.942000000    -5.190000000     2.269000000
C    -6.340000000    -3.688000000     3.768000000
H    -6.412000000    -4.441000000     4.549000000
C    -6.509000000    -2.307000000     4.073000000
H    -6.696000000    -2.015000000     5.103000000
C    -6.500000000    -1.487000000     2.952000000
O    -6.676000000    -0.104000000     3.098000000
C    -5.558000000     0.702000000     3.094000000
C    -5.815000000     1.964000000     2.577000000
H    -6.796000000     2.232000000     2.195000000
C    -4.712000000     2.815000000     2.585000000
O    -4.965000000     4.136000000     2.139000000
C    -3.968000000     5.026000000     1.687000000
C    -3.300000000     4.815000000     0.518000000
H    -3.302000000     3.857000000     0.003000000
C    -3.988000000     6.345000000     2.262000000
H    -4.560000000     6.577000000     3.156000000
C    -3.051000000     7.211000000     1.689000000
H    -2.904000000     8.203000000     2.107000000
C    -2.181000000     6.912000000     0.668000000
H    -1.554000000     7.678000000     0.219000000
C    -2.378000000     5.691000000     0.036000000
O    -1.669000000     5.367000000    -1.136000000
C    -0.313000000     5.185000000    -1.301000000
C     0.362000000     5.556000000    -2.439000000
H    -0.188000000     6.003000000    -3.263000000
C     1.772000000     5.514000000    -2.564000000
O     2.382000000     5.826000000    -3.787000000
C     3.136000000     4.901000000    -4.497000000
C     2.431000000     3.773000000    -4.883000000
H     1.390000000     3.571000000    -4.641000000
C     4.409000000     5.190000000    -4.788000000
H     5.048000000     6.014000000    -4.482000000
C     5.116000000     4.266000000    -5.597000000
H     6.175000000     4.376000000    -5.816000000
C     4.506000000     3.158000000    -6.115000000
H     5.007000000     2.449000000    -6.769000000
C     3.166000000     2.872000000    -5.747000000
O     2.487000000     1.836000000    -6.248000000
C     2.234000000     0.740000000    -5.529000000
C     1.027000000     0.126000000    -5.885000000
H     0.355000000     0.464000000    -6.670000000
C     0.749000000    -1.039000000    -5.209000000
O    -0.453000000    -1.604000000    -5.440000000
C    -0.715000000    -2.957000000    -5.232000000
C     0.277000000    -3.945000000    -5.572000000
H     1.257000000    -3.794000000    -6.015000000
C    -0.036000000    -5.283000000    -5.291000000
H     0.560000000    -6.088000000    -5.713000000
C    -1.164000000    -5.621000000    -4.593000000
H    -1.387000000    -6.641000000    -4.291000000
C    -2.073000000    -4.627000000    -4.196000000
C    -1.852000000    -3.300000000    -4.536000000
H    -2.502000000    -2.471000000    -4.267000000
C    -0.130000000     1.566000000    -2.814000000
H    -0.059000000     2.190000000    -3.701000000
C     0.855000000     1.480000000    -1.876000000
H     1.705000000     2.136000000    -2.042000000
C     0.656000000     0.732000000    -0.711000000
H     1.461000000     0.564000000     0.044000000
C    -0.507000000    -0.021000000    -0.594000000
H    -0.597000000    -0.708000000     0.243000000
C    -1.506000000    -0.005000000    -1.548000000
H    -2.430000000    -0.571000000    -1.458000000
C    -1.366000000     0.842000000    -2.648000000
C    -2.408000000     0.879000000    -3.705000000
O    -3.226000000    -0.021000000    -3.816000000
O    -2.550000000     1.873000000    -4.370000000
O    -5.746000000    -1.241000000    -6.121000000
H    -6.118000000    -1.863000000    -5.495000000
H    -4.958000000    -1.675000000    -6.449000000
O    -4.388000000     3.001000000    -6.669000000
H    -3.579000000     2.539000000    -6.449000000
H    -4.922000000     2.939000000    -5.878000000
O    -0.273000000    -1.893000000    -8.699000000
H     0.582000000    -2.324000000    -8.724000000
H    -0.470000000    -1.808000000    -7.766000000
O    -6.814000000     3.529000000    -1.155000000
H    -6.465000000     2.986000000    -1.863000000
H    -6.085000000     4.099000000    -0.909000000
O    -6.073000000     0.257000000    -8.519000000
H    -5.724000000    -0.043000000    -7.679000000
H    -5.385000000     0.817000000    -8.878000000
O    -5.663000000     4.429000000    -8.835000000
H    -5.034000000     4.119000000    -8.184000000
H    -5.907000000     3.643000000    -9.325000000
O     0.582000000     3.034000000    -8.183000000
H    -0.119000000     3.039000000    -7.531000000
H     1.032000000     3.869000000    -8.058000000
O    -7.660000000    -2.512000000    -4.763000000
H    -7.530000000    -3.440000000    -4.567000000
H    -7.631000000    -2.081000000    -3.909000000
O    -8.321000000     3.094000000    -6.963000000
H    -7.558000000     2.533000000    -6.824000000
H    -8.690000000     3.216000000    -6.088000000
O    -1.651000000     3.714000000    -9.694000000
H    -2.453000000     3.210000000    -9.557000000
H    -1.147000000     3.584000000    -8.891000000
O    -7.577000000    -1.463000000    -2.011000000
H    -6.685000000    -1.477000000    -1.664000000
H    -7.868000000    -0.560000000    -1.888000000
O    -4.663000000     5.143000000    -2.512000000
H    -4.955000000     5.971000000    -2.894000000
H    -3.819000000     5.350000000    -2.110000000
O    -2.528000000     0.349000000    -6.940000000
H    -2.799000000    -0.547000000    -7.144000000
H    -2.655000000     0.427000000    -5.994000000
O    -3.266000000    -2.093000000    -7.386000000
H    -2.775000000    -2.478000000    -6.660000000
H    -3.526000000    -2.842000000    -7.923000000
O    -1.160000000     3.341000000    -6.119000000
H    -1.772000000     2.783000000    -5.639000000
H    -1.082000000     4.129000000    -5.581000000
O    -6.614000000     1.500000000    -5.313000000
H    -6.341000000     2.001000000    -4.544000000
H    -5.975000000     0.790000000    -5.375000000
O    -3.798000000     1.371000000    -9.564000000
H    -3.465000000     0.664000000   -10.118000000
H    -3.163000000     1.434000000    -8.850000000
O    -5.164000000     2.456000000    -3.235000000
H    -4.278000000     2.147000000    -3.427000000
H    -5.044000000     3.363000000    -2.953000000
O    -5.041000000    -0.510000000    -1.599000000
H    -4.570000000    -0.722000000    -2.404000000
H    -5.049000000     0.447000000    -1.570000000
