215
-1456.16105
C    -3.930000000     2.164000000     2.654000000
H    -3.264000000     2.993000000     2.879000000
C    -3.655000000     0.833000000     2.955000000
C    -4.673000000    -0.158000000     2.728000000
H    -4.600000000    -1.165000000     3.131000000
C    -2.303000000     0.451000000     3.513000000
O    -1.596000000     1.571000000     4.115000000
H    -1.609000000     0.251000000     2.683000000
O    -2.315000000    -0.758000000     4.378000000
C    -1.272000000    -1.625000000     4.220000000
C    -1.511000000    -2.754000000     3.438000000
H    -2.509000000    -3.052000000     3.128000000
C    -0.422000000    -3.553000000     3.081000000
O    -0.693000000    -4.506000000     2.139000000
C     0.869000000    -3.339000000     3.625000000
C     2.000000000    -4.237000000     3.098000000
H     2.767000000    -4.354000000     3.866000000
C     2.624000000    -3.782000000     1.782000000
C     3.687000000    -2.842000000     1.831000000
H     4.051000000    -2.516000000     2.802000000
H     1.598000000    -5.233000000     2.901000000
C     1.101000000    -2.336000000     4.543000000
H     2.119000000    -2.153000000     4.879000000
C     0.041000000    -1.407000000     4.769000000
C     0.368000000    -0.115000000     5.413000000
H     1.247000000    -0.155000000     6.059000000
H    -0.491000000     0.163000000     6.028000000
C     0.706000000     0.949000000     4.432000000
C     2.054000000     1.388000000     4.232000000
H     2.826000000     0.780000000     4.696000000
C    -0.293000000     1.818000000     3.967000000
C    -0.086000000     3.043000000     3.369000000
H    -0.943000000     3.637000000     3.063000000
C     1.262000000     3.382000000     3.058000000
O     1.417000000     4.294000000     2.041000000
C     1.743000000     3.882000000     0.683000000
C     1.113000000     4.742000000    -0.356000000
C     1.608000000     4.900000000    -1.647000000
H     2.526000000     4.380000000    -1.907000000
C    -0.131000000     5.230000000    -0.051000000
H    -0.574000000     5.171000000     0.939000000
O     3.173000000     3.838000000     0.503000000
H     1.407000000     2.852000000     0.491000000
C     2.320000000     2.546000000     3.480000000
C     3.838000000     2.766000000     3.139000000
H     4.408000000     2.395000000     3.992000000
H     4.126000000     3.814000000     3.031000000
C     4.138000000     2.035000000     1.847000000
C     4.769000000     0.765000000     1.858000000
H     5.137000000     0.444000000     2.829000000
C     3.758000000     2.589000000     0.584000000
C     4.026000000     1.911000000    -0.530000000
H     3.958000000     2.406000000    -1.495000000
C     4.492000000     0.640000000    -0.521000000
O     4.589000000     0.036000000    -1.761000000
C     3.535000000    -0.851000000    -2.112000000
C     3.052000000    -0.718000000    -3.544000000
C     3.176000000     0.446000000    -4.282000000
H     3.565000000     1.379000000    -3.882000000
C     2.507000000    -1.852000000    -4.155000000
H     2.459000000    -2.796000000    -3.619000000
O     3.943000000    -2.278000000    -1.789000000
H     2.669000000    -0.568000000    -1.497000000
C     4.882000000     0.025000000     0.659000000
C     5.358000000    -1.440000000     0.704000000
H     5.879000000    -1.590000000     1.652000000
H     6.051000000    -1.574000000    -0.130000000
C     4.165000000    -2.350000000     0.600000000
C     3.652000000    -2.803000000    -0.559000000
C     2.573000000    -3.654000000    -0.566000000
H     2.020000000    -3.919000000    -1.464000000
C     2.037000000    -4.142000000     0.578000000
O     0.889000000    -4.867000000     0.482000000
C    -0.326000000    -4.189000000     0.829000000
H    -0.141000000    -3.106000000     0.877000000
C    -1.423000000    -4.451000000    -0.172000000
C    -2.707000000    -4.495000000     0.317000000
H    -2.875000000    -4.514000000     1.391000000
C    -1.110000000    -4.499000000    -1.526000000
H    -0.094000000    -4.174000000    -1.731000000
C    -2.243000000    -4.569000000    -2.424000000
O    -2.102000000    -4.401000000    -3.752000000
C    -3.478000000    -4.679000000    -1.910000000
H    -4.223000000    -4.846000000    -2.684000000
C    -3.798000000    -4.637000000    -0.549000000
O    -5.059000000    -4.888000000    -0.088000000
C    -5.650000000    -4.153000000     0.976000000
C    -5.878000000    -2.773000000     0.833000000
H    -5.306000000    -2.273000000     0.056000000
C    -6.200000000    -4.834000000     2.038000000
H    -6.098000000    -5.917000000     2.047000000
C    -6.946000000    -4.198000000     3.007000000
H    -7.425000000    -4.693000000     3.848000000
C    -7.062000000    -2.809000000     2.904000000
H    -7.698000000    -2.232000000     3.570000000
C    -6.603000000    -2.093000000     1.822000000
O    -6.812000000    -0.725000000     1.849000000
C    -5.850000000     0.216000000     2.103000000
C    -6.042000000     1.537000000     1.615000000
H    -6.960000000     1.827000000     1.110000000
C    -5.065000000     2.473000000     1.862000000
O    -5.419000000     3.769000000     1.390000000
C    -4.570000000     4.855000000     1.506000000
C    -3.713000000     5.107000000     0.426000000
H    -3.687000000     4.402000000    -0.401000000
C    -4.540000000     5.610000000     2.700000000
H    -5.122000000     5.438000000     3.602000000
C    -3.560000000     6.589000000     2.698000000
H    -3.352000000     7.048000000     3.661000000
C    -2.763000000     6.903000000     1.632000000
H    -2.008000000     7.659000000     1.828000000
C    -2.817000000     6.151000000     0.469000000
O    -2.073000000     6.455000000    -0.637000000
C    -0.825000000     5.967000000    -0.986000000
C    -0.410000000     6.045000000    -2.300000000
H    -0.954000000     6.600000000    -3.060000000
C     0.854000000     5.512000000    -2.679000000
O     1.179000000     5.459000000    -4.009000000
C     2.246000000     4.819000000    -4.585000000
C     2.062000000     3.487000000    -5.066000000
H     1.097000000     3.017000000    -4.895000000
C     3.424000000     5.417000000    -4.666000000
H     3.510000000     6.450000000    -4.342000000
C     4.465000000     4.806000000    -5.410000000
H     5.418000000     5.328000000    -5.415000000
C     4.258000000     3.581000000    -5.980000000
H     5.026000000     3.155000000    -6.620000000
C     3.060000000     2.862000000    -5.810000000
O     2.822000000     1.655000000    -6.338000000
C     2.725000000     0.480000000    -5.617000000
C     2.222000000    -0.600000000    -6.262000000
H     1.919000000    -0.454000000    -7.296000000
C     2.083000000    -1.760000000    -5.476000000
O     1.735000000    -2.905000000    -6.143000000
C     1.083000000    -3.947000000    -5.600000000
C     1.463000000    -5.229000000    -5.783000000
H     2.396000000    -5.466000000    -6.289000000
C     0.625000000    -6.317000000    -5.404000000
H     0.990000000    -7.316000000    -5.629000000
C    -0.569000000    -6.024000000    -4.695000000
H    -1.270000000    -6.843000000    -4.561000000
C    -0.919000000    -4.724000000    -4.445000000
C    -0.102000000    -3.686000000    -4.859000000
H    -0.288000000    -2.658000000    -4.558000000
C    -0.151000000     0.619000000    -1.468000000
H     0.366000000     1.263000000    -2.174000000
C     0.471000000     0.213000000    -0.252000000
H     1.531000000     0.372000000    -0.072000000
C    -0.201000000    -0.584000000     0.689000000
H     0.243000000    -0.799000000     1.592000000
C    -1.458000000    -1.007000000     0.445000000
H    -2.068000000    -1.709000000     1.008000000
C    -2.081000000    -0.583000000    -0.677000000
H    -3.139000000    -0.799000000    -0.805000000
C    -1.437000000     0.097000000    -1.720000000
C    -2.179000000     0.584000000    -3.003000000
O    -3.365000000     0.323000000    -3.061000000
O    -1.594000000     1.177000000    -3.894000000
O    -4.697000000    -2.143000000    -3.589000000
H    -4.051000000    -2.850000000    -3.575000000
H    -4.212000000    -1.370000000    -3.301000000
O    -0.706000000     0.080000000    -8.374000000
H    -0.642000000    -0.874000000    -8.407000000
H    -1.380000000     0.253000000    -7.717000000
O     1.401000000     1.697000000    -9.080000000
H     0.678000000     1.162000000    -8.754000000
H     1.318000000     2.526000000    -8.608000000
O    -6.653000000     3.682000000    -2.103000000
H    -6.508000000     4.628000000    -2.067000000
H    -6.971000000     3.522000000    -2.992000000
O    -6.749000000    -1.799000000    -5.197000000
H    -5.868000000    -1.964000000    -4.863000000
H    -6.923000000    -0.885000000    -4.972000000
O    -3.991000000     3.344000000    -8.861000000
H    -3.528000000     2.563000000    -9.161000000
H    -4.113000000     3.205000000    -7.921000000
O    -2.127000000    -0.499000000    -5.943000000
H    -3.042000000    -0.246000000    -6.064000000
H    -1.807000000     0.081000000    -5.252000000
O    -6.376000000     5.646000000    -5.356000000
H    -5.761000000     6.192000000    -4.866000000
H    -5.877000000     5.347000000    -6.116000000
O    -2.455000000    -2.781000000    -8.330000000
H    -2.670000000    -3.676000000    -8.068000000
H    -2.582000000    -2.262000000    -7.536000000
O    -5.474000000    -0.380000000    -7.805000000
H    -5.820000000    -0.980000000    -7.144000000
H    -5.112000000     0.349000000    -7.301000000
O    -4.300000000     5.116000000    -6.838000000
H    -4.382000000     4.721000000    -7.706000000
H    -3.510000000     5.654000000    -6.892000000
O    -5.570000000     6.142000000    -2.215000000
H    -5.387000000     6.789000000    -1.534000000
H    -4.977000000     6.373000000    -2.930000000
O    -7.083000000     1.155000000    -4.330000000
H    -7.649000000     1.924000000    -4.392000000
H    -6.794000000     1.143000000    -3.417000000
O    -4.134000000     6.716000000    -4.320000000
H    -3.414000000     6.153000000    -4.035000000
H    -3.705000000     7.492000000    -4.678000000
O    -4.513000000     1.013000000    -5.655000000
H    -5.370000000     1.228000000    -5.288000000
H    -3.912000000     1.075000000    -4.912000000
O    -2.397000000     3.816000000    -4.283000000
H    -2.855000000     3.707000000    -5.116000000
H    -2.144000000     2.928000000    -4.031000000
O    -2.300000000     1.433000000    -9.889000000
H    -2.052000000     1.433000000   -10.814000000
H    -1.539000000     1.070000000    -9.437000000
O    -5.691000000     0.975000000    -1.799000000
H    -4.841000000     0.912000000    -2.236000000
H    -5.621000000     1.757000000    -1.251000000
O    -6.702000000    -1.444000000    -1.806000000
H    -6.383000000    -0.588000000    -1.521000000
H    -6.041000000    -1.753000000    -2.425000000
