215
-1452.23614
C    -3.418000000     1.980000000     2.741000000
H    -2.529000000     2.604000000     2.682000000
C    -3.292000000     0.755000000     3.414000000
C    -4.337000000    -0.144000000     3.385000000
H    -4.289000000    -1.077000000     3.941000000
C    -1.881000000     0.385000000     3.968000000
O    -1.210000000     1.544000000     4.439000000
H    -1.377000000    -0.083000000     3.110000000
O    -1.896000000    -0.717000000     4.903000000
C    -1.012000000    -1.770000000     4.710000000
C    -1.408000000    -2.845000000     3.906000000
H    -2.465000000    -3.036000000     3.741000000
C    -0.471000000    -3.623000000     3.189000000
O    -0.963000000    -4.493000000     2.207000000
C     0.840000000    -3.383000000     3.384000000
C     1.979000000    -4.272000000     2.790000000
H     2.817000000    -4.389000000     3.479000000
C     2.401000000    -3.771000000     1.413000000
C     3.654000000    -3.151000000     1.249000000
H     4.439000000    -3.121000000     2.001000000
H     1.586000000    -5.276000000     2.616000000
C     1.244000000    -2.330000000     4.253000000
H     2.305000000    -2.098000000     4.307000000
C     0.353000000    -1.454000000     4.840000000
C     0.850000000    -0.274000000     5.646000000
H     1.760000000    -0.618000000     6.140000000
H     0.209000000    -0.058000000     6.503000000
C     1.137000000     0.927000000     4.752000000
C     2.390000000     0.947000000     4.135000000
H     3.064000000     0.137000000     4.403000000
C     0.159000000     1.798000000     4.260000000
C     0.453000000     2.779000000     3.309000000
H    -0.365000000     3.279000000     2.796000000
C     1.770000000     2.952000000     2.914000000
O     2.017000000     3.835000000     1.866000000
C     2.197000000     3.468000000     0.447000000
C     1.436000000     4.384000000    -0.555000000
C     1.992000000     4.797000000    -1.751000000
H     2.978000000     4.431000000    -2.025000000
C     0.269000000     4.989000000    -0.183000000
H    -0.146000000     4.840000000     0.811000000
O     3.625000000     3.523000000     0.221000000
H     1.877000000     2.451000000     0.177000000
C     2.735000000     2.013000000     3.295000000
C     4.179000000     2.197000000     2.819000000
H     4.843000000     1.830000000     3.605000000
H     4.579000000     3.209000000     2.909000000
C     4.495000000     1.605000000     1.452000000
C     4.879000000     0.265000000     1.325000000
H     5.121000000    -0.228000000     2.263000000
C     4.345000000     2.336000000     0.260000000
C     4.519000000     1.774000000    -1.029000000
H     4.237000000     2.393000000    -1.877000000
C     4.729000000     0.383000000    -1.089000000
O     4.560000000    -0.216000000    -2.333000000
C     3.310000000    -0.969000000    -2.656000000
C     2.874000000    -0.717000000    -4.055000000
C     3.233000000     0.463000000    -4.704000000
H     4.050000000     1.052000000    -4.296000000
C     1.941000000    -1.540000000    -4.668000000
H     1.756000000    -2.491000000    -4.174000000
O     3.471000000    -2.411000000    -2.361000000
H     2.476000000    -0.589000000    -2.048000000
C     4.972000000    -0.321000000     0.044000000
C     5.306000000    -1.791000000     0.042000000
H     5.970000000    -2.085000000     0.857000000
H     5.819000000    -2.013000000    -0.896000000
C     4.021000000    -2.631000000     0.023000000
C     3.211000000    -2.865000000    -1.066000000
C     2.040000000    -3.496000000    -0.920000000
H     1.457000000    -3.709000000    -1.813000000
C     1.538000000    -3.924000000     0.319000000
O     0.362000000    -4.633000000     0.291000000
C    -0.772000000    -4.025000000     0.834000000
H    -0.612000000    -2.939000000     0.759000000
C    -2.049000000    -4.375000000     0.020000000
C    -3.274000000    -4.642000000     0.613000000
H    -3.379000000    -4.739000000     1.691000000
C    -2.073000000    -4.135000000    -1.401000000
H    -1.152000000    -3.785000000    -1.860000000
C    -3.247000000    -4.109000000    -2.174000000
O    -3.109000000    -3.761000000    -3.520000000
C    -4.477000000    -4.397000000    -1.560000000
H    -5.409000000    -4.485000000    -2.112000000
C    -4.451000000    -4.756000000    -0.177000000
O    -5.652000000    -4.949000000     0.464000000
C    -6.160000000    -4.146000000     1.500000000
C    -6.021000000    -2.743000000     1.521000000
H    -5.687000000    -2.164000000     0.663000000
C    -6.585000000    -4.847000000     2.637000000
H    -6.611000000    -5.933000000     2.590000000
C    -6.977000000    -4.185000000     3.779000000
H    -7.295000000    -4.789000000     4.625000000
C    -6.938000000    -2.763000000     3.801000000
H    -7.424000000    -2.341000000     4.677000000
C    -6.559000000    -2.094000000     2.640000000
O    -6.573000000    -0.776000000     2.683000000
C    -5.511000000     0.100000000     2.690000000
C    -5.681000000     1.374000000     2.064000000
H    -6.648000000     1.652000000     1.652000000
C    -4.615000000     2.268000000     2.084000000
O    -4.872000000     3.500000000     1.551000000
C    -3.939000000     4.578000000     1.576000000
C    -3.212000000     4.948000000     0.383000000
H    -3.296000000     4.401000000    -0.553000000
C    -3.820000000     5.294000000     2.755000000
H    -4.421000000     5.065000000     3.632000000
C    -2.962000000     6.424000000     2.732000000
H    -2.810000000     7.036000000     3.617000000
C    -2.166000000     6.731000000     1.602000000
H    -1.434000000     7.528000000     1.496000000
C    -2.344000000     5.955000000     0.445000000
O    -1.721000000     6.359000000    -0.671000000
C    -0.474000000     5.834000000    -1.064000000
C    -0.050000000     5.927000000    -2.397000000
H    -0.612000000     6.534000000    -3.102000000
C     1.192000000     5.372000000    -2.696000000
O     1.658000000     5.708000000    -3.988000000
C     2.671000000     4.969000000    -4.525000000
C     2.379000000     3.759000000    -5.141000000
H     1.337000000     3.456000000    -5.079000000
C     3.995000000     5.381000000    -4.313000000
H     4.213000000     6.278000000    -3.739000000
C     5.013000000     4.631000000    -4.905000000
H     6.069000000     4.856000000    -4.782000000
C     4.729000000     3.514000000    -5.625000000
H     5.462000000     2.864000000    -6.097000000
C     3.399000000     3.100000000    -5.812000000
O     3.061000000     1.999000000    -6.491000000
C     2.654000000     0.863000000    -5.906000000
C     1.599000000     0.110000000    -6.396000000
H     0.972000000     0.424000000    -7.227000000
C     1.232000000    -1.053000000    -5.754000000
O     0.094000000    -1.635000000    -6.183000000
C    -0.351000000    -2.839000000    -5.712000000
C     0.146000000    -4.041000000    -6.083000000
H     0.980000000    -4.124000000    -6.776000000
C    -0.448000000    -5.209000000    -5.573000000
H    -0.022000000    -6.154000000    -5.900000000
C    -1.492000000    -5.113000000    -4.629000000
H    -1.913000000    -6.030000000    -4.227000000
C    -2.010000000    -3.881000000    -4.315000000
C    -1.480000000    -2.749000000    -4.885000000
H    -1.906000000    -1.813000000    -4.534000000
C    -1.312000000     0.818000000    -2.152000000
H    -1.089000000     1.501000000    -2.968000000
C    -0.624000000     0.796000000    -0.930000000
H     0.308000000     1.350000000    -0.843000000
C    -1.068000000     0.058000000     0.166000000
H    -0.523000000    -0.002000000     1.093000000
C    -2.172000000    -0.810000000     0.033000000
H    -2.446000000    -1.481000000     0.843000000
C    -2.825000000    -0.834000000    -1.229000000
H    -3.674000000    -1.501000000    -1.350000000
C    -2.486000000     0.025000000    -2.248000000
C    -3.353000000     0.019000000    -3.490000000
O    -4.409000000    -0.523000000    -3.461000000
O    -2.956000000     0.606000000    -4.446000000
O    -5.644000000    -2.705000000    -4.532000000
H    -5.028000000    -3.359000000    -4.201000000
H    -5.273000000    -1.866000000    -4.259000000
O    -8.880000000     1.778000000    -0.442000000
H    -8.001000000     1.452000000    -0.636000000
H    -9.213000000     2.084000000    -1.286000000
O    -1.964000000    -0.587000000    -7.783000000
H    -1.276000000    -0.747000000    -7.137000000
H    -2.593000000    -0.025000000    -7.330000000
O    -0.642000000    -0.129000000    -9.878000000
H    -1.180000000    -0.348000000    -9.117000000
H    -0.644000000     0.828000000    -9.905000000
O    -5.232000000     3.051000000    -2.358000000
H    -4.633000000     3.382000000    -3.027000000
H    -5.507000000     3.831000000    -1.876000000
O    -8.118000000    -2.994000000    -3.766000000
H    -7.193000000    -2.869000000    -3.979000000
H    -8.530000000    -2.159000000    -3.989000000
O    -2.485000000     2.827000000    -7.122000000
H    -1.748000000     2.830000000    -7.733000000
H    -2.976000000     2.035000000    -7.343000000
O    -4.266000000     0.215000000    -6.705000000
H    -5.153000000     0.574000000    -6.743000000
H    -4.006000000     0.317000000    -5.790000000
O    -4.411000000    -2.551000000    -7.030000000
H    -4.988000000    -2.639000000    -6.271000000
H    -4.148000000    -1.631000000    -7.025000000
O    -5.949000000    -2.478000000    -9.358000000
H    -6.819000000    -2.524000000    -8.961000000
H    -5.345000000    -2.593000000    -8.624000000
O    -6.947000000     1.203000000    -7.132000000
H    -7.827000000     0.846000000    -7.253000000
H    -6.836000000     1.250000000    -6.183000000
O    -3.046000000    -4.666000000    -7.950000000
H    -3.086000000    -5.407000000    -7.346000000
H    -3.432000000    -3.939000000    -7.462000000
O    -4.616000000     5.223000000    -6.754000000
H    -4.051000000     4.791000000    -7.395000000
H    -4.136000000     6.013000000    -6.506000000
O    -8.906000000    -0.464000000    -4.125000000
H    -9.594000000    -0.135000000    -4.704000000
H    -8.283000000     0.259000000    -4.058000000
O    -3.064000000     5.969000000    -3.721000000
H    -3.249000000     5.079000000    -4.021000000
H    -2.723000000     6.416000000    -4.495000000
O    -6.678000000     1.068000000    -4.382000000
H    -6.476000000     1.935000000    -4.030000000
H    -5.918000000     0.534000000    -4.154000000
O    -3.087000000     3.355000000    -4.466000000
H    -2.981000000     2.454000000    -4.162000000
H    -2.937000000     3.308000000    -5.411000000
O    -5.959000000     0.522000000    -1.443000000
H    -5.444000000     0.190000000    -2.179000000
H    -5.692000000     1.437000000    -1.358000000
O    -7.730000000    -1.635000000    -1.109000000
H    -7.052000000    -0.962000000    -1.168000000
H    -7.707000000    -2.073000000    -1.959000000
