215
-1461.82459
C     3.459000000    -3.154000000    -1.601000000
H     2.794000000    -3.945000000    -1.264000000
C     3.835000000    -2.156000000    -0.669000000
C     4.606000000    -1.081000000    -1.093000000
H     4.981000000    -0.397000000    -0.336000000
C     3.420000000    -2.161000000     0.765000000
O     3.093000000    -3.522000000     1.147000000
H     2.529000000    -1.518000000     0.807000000
O     4.354000000    -1.489000000     1.714000000
C     3.748000000    -0.573000000     2.580000000
C     3.831000000     0.746000000     2.230000000
H     4.289000000     1.137000000     1.324000000
C     3.086000000     1.686000000     2.964000000
O     3.095000000     3.006000000     2.554000000
C     2.364000000     1.290000000     4.075000000
C     1.587000000     2.303000000     4.941000000
H     1.505000000     1.973000000     5.979000000
C     0.219000000     2.598000000     4.342000000
C    -0.830000000     1.750000000     4.661000000
H    -0.731000000     0.983000000     5.425000000
H     2.084000000     3.272000000     4.866000000
C     2.248000000    -0.090000000     4.376000000
H     1.742000000    -0.355000000     5.301000000
C     2.908000000    -1.007000000     3.568000000
C     2.834000000    -2.467000000     3.885000000
H     2.699000000    -2.658000000     4.952000000
H     3.755000000    -3.007000000     3.657000000
C     1.721000000    -3.215000000     3.170000000
C     0.503000000    -3.322000000     3.757000000
H     0.374000000    -2.949000000     4.771000000
C     1.881000000    -3.676000000     1.880000000
C     0.977000000    -4.468000000     1.273000000
H     1.089000000    -4.796000000     0.243000000
C    -0.258000000    -4.544000000     1.858000000
O    -1.371000000    -4.999000000     1.118000000
C    -2.119000000    -3.958000000     0.371000000
C    -2.323000000    -4.400000000    -1.078000000
C    -3.346000000    -3.771000000    -1.805000000
H    -3.936000000    -3.062000000    -1.230000000
C    -1.537000000    -5.321000000    -1.692000000
H    -0.694000000    -5.710000000    -1.127000000
O    -3.435000000    -3.773000000     1.018000000
H    -1.564000000    -3.015000000     0.486000000
C    -0.528000000    -3.934000000     3.125000000
C    -1.993000000    -3.899000000     3.631000000
H    -1.917000000    -3.746000000     4.709000000
H    -2.434000000    -4.897000000     3.580000000
C    -2.721000000    -2.679000000     3.069000000
C    -2.726000000    -1.504000000     3.799000000
H    -2.249000000    -1.389000000     4.769000000
C    -3.411000000    -2.669000000     1.830000000
C    -3.856000000    -1.460000000     1.311000000
H    -4.339000000    -1.347000000     0.344000000
C    -3.932000000    -0.328000000     2.181000000
O    -4.439000000     0.803000000     1.621000000
C    -3.447000000     1.815000000     1.102000000
C    -3.860000000     2.363000000    -0.251000000
C    -4.277000000     1.538000000    -1.290000000
H    -4.283000000     0.468000000    -1.100000000
C    -3.760000000     3.732000000    -0.498000000
H    -3.344000000     4.289000000     0.338000000
O    -3.319000000     2.823000000     2.118000000
H    -2.467000000     1.320000000     1.040000000
C    -3.303000000    -0.311000000     3.367000000
C    -3.188000000     0.922000000     4.354000000
H    -3.146000000     0.569000000     5.387000000
H    -4.154000000     1.432000000     4.358000000
C    -2.039000000     1.858000000     3.974000000
C    -2.176000000     2.810000000     2.926000000
C    -1.092000000     3.589000000     2.547000000
H    -1.183000000     4.157000000     1.625000000
C     0.097000000     3.501000000     3.275000000
O     1.158000000     4.224000000     2.778000000
C     1.969000000     3.539000000     1.818000000
H     1.545000000     2.609000000     1.411000000
C     2.284000000     4.347000000     0.528000000
C     3.526000000     4.162000000    -0.146000000
H     4.262000000     3.490000000     0.288000000
C     1.398000000     5.301000000    -0.039000000
H     0.536000000     5.683000000     0.503000000
C     1.598000000     5.845000000    -1.345000000
O     0.685000000     6.719000000    -1.920000000
C     2.806000000     5.514000000    -2.018000000
H     2.922000000     5.866000000    -3.040000000
C     3.733000000     4.781000000    -1.384000000
O     4.995000000     4.596000000    -1.978000000
C     5.753000000     3.484000000    -1.910000000
C     5.337000000     2.346000000    -2.485000000
H     4.348000000     2.257000000    -2.927000000
C     6.990000000     3.511000000    -1.223000000
H     7.339000000     4.392000000    -0.691000000
C     7.783000000     2.309000000    -1.102000000
H     8.713000000     2.326000000    -0.539000000
C     7.301000000     1.170000000    -1.725000000
H     7.975000000     0.320000000    -1.807000000
C     6.091000000     1.176000000    -2.403000000
O     5.676000000     0.034000000    -3.050000000
C     4.827000000    -0.974000000    -2.452000000
C     4.385000000    -1.958000000    -3.362000000
H     4.801000000    -1.903000000    -4.365000000
C     3.707000000    -3.111000000    -2.947000000
O     3.231000000    -4.097000000    -3.839000000
C     2.548000000    -5.211000000    -3.490000000
C     1.181000000    -5.320000000    -3.767000000
H     0.673000000    -4.403000000    -4.054000000
C     3.244000000    -6.313000000    -2.950000000
H     4.309000000    -6.247000000    -2.745000000
C     2.623000000    -7.502000000    -2.657000000
H     2.988000000    -8.372000000    -2.117000000
C     1.248000000    -7.567000000    -2.867000000
H     0.677000000    -8.468000000    -2.659000000
C     0.537000000    -6.487000000    -3.396000000
O    -0.799000000    -6.578000000    -3.645000000
C    -1.664000000    -5.649000000    -3.033000000
C    -2.729000000    -5.082000000    -3.724000000
H    -2.830000000    -5.291000000    -4.786000000
C    -3.564000000    -4.141000000    -3.132000000
O    -4.496000000    -3.517000000    -3.873000000
C    -5.232000000    -2.454000000    -3.511000000
C    -4.840000000    -1.156000000    -3.907000000
H    -3.930000000    -0.968000000    -4.471000000
C    -6.390000000    -2.511000000    -2.673000000
H    -6.821000000    -3.462000000    -2.370000000
C    -7.166000000    -1.396000000    -2.304000000
H    -8.041000000    -1.441000000    -1.661000000
C    -6.686000000    -0.176000000    -2.704000000
H    -7.120000000     0.745000000    -2.323000000
C    -5.498000000    -0.010000000    -3.517000000
O    -4.928000000     1.269000000    -3.645000000
C    -4.612000000     2.077000000    -2.560000000
C    -4.360000000     3.431000000    -2.804000000
H    -4.523000000     3.855000000    -3.792000000
C    -3.991000000     4.275000000    -1.803000000
O    -3.820000000     5.548000000    -2.131000000
C    -2.887000000     6.393000000    -1.655000000
C    -3.234000000     7.592000000    -1.034000000
H    -4.272000000     7.835000000    -0.819000000
C    -2.254000000     8.452000000    -0.579000000
H    -2.498000000     9.409000000    -0.124000000
C    -0.929000000     8.088000000    -0.806000000
H    -0.200000000     8.782000000    -0.396000000
C    -0.587000000     6.906000000    -1.459000000
C    -1.527000000     5.973000000    -1.797000000
H    -1.260000000     5.060000000    -2.322000000
C    -1.170000000     1.158000000    -2.935000000
H    -2.067000000     1.044000000    -3.538000000
C    -1.147000000     0.231000000    -1.902000000
H    -1.954000000    -0.473000000    -1.717000000
C    -0.062000000     0.243000000    -1.016000000
H    -0.025000000    -0.420000000    -0.145000000
C     0.965000000     1.147000000    -1.167000000
H     1.799000000     1.169000000    -0.470000000
C     0.931000000     2.012000000    -2.170000000
H     1.801000000     2.660000000    -2.245000000
C    -0.093000000     2.073000000    -3.098000000
C    -0.139000000     3.036000000    -4.262000000
O     0.785000000     3.831000000    -4.425000000
O    -1.073000000     2.999000000    -5.084000000
O     4.374000000     4.711000000    -6.506000000
H     3.829000000     3.928000000    -6.588000000
H     5.271000000     4.387000000    -6.580000000
O    -2.353000000     6.418000000    -5.925000000
H    -1.484000000     6.170000000    -5.609000000
H    -2.181000000     6.968000000    -6.690000000
O     3.116000000     7.055000000    -5.505000000
H     3.489000000     7.418000000    -6.308000000
H     3.595000000     6.238000000    -5.366000000
O    -1.037000000     3.215000000    -9.073000000
H    -0.162000000     2.878000000    -8.880000000
H    -1.437000000     3.351000000    -8.214000000
O     4.589000000     0.276000000    -6.200000000
H     4.482000000     0.997000000    -5.579000000
H     5.516000000     0.046000000    -6.144000000
O    -4.536000000     7.026000000    -4.347000000
H    -4.231000000     6.517000000    -3.597000000
H    -3.796000000     7.023000000    -4.955000000
O    -1.625000000     0.788000000    -6.340000000
H    -1.117000000     1.287000000    -5.699000000
H    -2.268000000     1.412000000    -6.675000000
O     3.046000000     2.576000000    -5.449000000
H     2.495000000     3.215000000    -4.997000000
H     2.428000000     2.013000000    -5.915000000
O    -2.726000000     3.814000000    -6.830000000
H    -2.132000000     3.482000000    -6.158000000
H    -2.965000000     4.691000000    -6.528000000
O     0.826000000    -1.573000000    -3.394000000
H     1.175000000    -1.791000000    -2.530000000
H     0.299000000    -0.788000000    -3.248000000
O    -0.201000000     8.977000000    -4.000000000
H    -0.068000000     8.802000000    -3.068000000
H    -0.397000000     8.120000000    -4.379000000
O     0.756000000     7.488000000    -7.622000000
H     1.634000000     7.732000000    -7.329000000
H     0.491000000     6.787000000    -7.027000000
O     0.930000000     1.799000000    -7.497000000
H     0.119000000     1.413000000    -7.167000000
H     1.552000000     1.072000000    -7.516000000
O     0.769000000     5.321000000   -10.157000000
H    -0.090000000     5.692000000   -10.358000000
H     0.801000000     5.296000000    -9.200000000
O     0.349000000     6.379000000    -5.028000000
H     1.174000000     6.864000000    -5.006000000
H     0.546000000     5.552000000    -4.588000000
O     2.534000000    -0.585000000    -7.452000000
H     3.304000000    -0.331000000    -6.943000000
H     2.258000000    -1.418000000    -7.069000000
O     1.107000000     4.560000000    -7.060000000
H     0.782000000     4.673000000    -6.167000000
H     1.197000000     3.613000000    -7.164000000
O    -1.487000000    -1.718000000    -7.183000000
H    -1.789000000    -0.892000000    -6.806000000
H    -2.193000000    -2.338000000    -7.001000000
O    -5.032000000     3.016000000    -8.313000000
H    -4.120000000     3.083000000    -8.034000000
H    -5.221000000     3.860000000    -8.722000000
