215
-1458.41368
C    -2.523000000     1.982000000     2.719000000
H    -1.584000000     2.373000000     2.335000000
C    -2.514000000     0.890000000     3.582000000
C    -3.717000000     0.240000000     3.882000000
H    -3.745000000    -0.618000000     4.549000000
C    -1.206000000     0.221000000     3.997000000
O    -0.191000000     1.125000000     4.575000000
H    -0.739000000    -0.150000000     3.073000000
O    -1.327000000    -0.961000000     4.814000000
C    -0.784000000    -2.083000000     4.232000000
C    -1.540000000    -2.913000000     3.410000000
H    -2.604000000    -2.718000000     3.311000000
C    -0.901000000    -3.932000000     2.650000000
O    -1.573000000    -4.593000000     1.681000000
C     0.459000000    -4.134000000     2.795000000
C     1.129000000    -5.246000000     2.001000000
H     2.031000000    -5.555000000     2.534000000
C     1.651000000    -4.642000000     0.738000000
C     2.924000000    -4.223000000     0.609000000
H     3.571000000    -4.342000000     1.474000000
H     0.492000000    -6.095000000     1.745000000
C     1.205000000    -3.367000000     3.682000000
H     2.289000000    -3.347000000     3.755000000
C     0.562000000    -2.342000000     4.440000000
C     1.429000000    -1.423000000     5.283000000
H     2.270000000    -2.031000000     5.623000000
H     0.866000000    -1.026000000     6.130000000
C     1.913000000    -0.206000000     4.455000000
C     3.202000000    -0.225000000     3.878000000
H     3.873000000    -1.036000000     4.149000000
C     1.101000000     0.973000000     4.172000000
C     1.590000000     2.047000000     3.451000000
H     1.065000000     2.995000000     3.365000000
C     2.898000000     2.069000000     2.979000000
O     3.339000000     3.168000000     2.218000000
C     3.100000000     2.955000000     0.813000000
C     2.475000000     4.256000000     0.113000000
C     3.070000000     4.778000000    -1.072000000
H     3.846000000     4.193000000    -1.558000000
C     1.365000000     4.927000000     0.681000000
H     0.906000000     4.504000000     1.571000000
O     4.282000000     2.647000000     0.148000000
H     2.508000000     2.035000000     0.699000000
C     3.703000000     0.968000000     3.205000000
C     5.035000000     0.911000000     2.562000000
H     5.737000000     0.264000000     3.093000000
H     5.425000000     1.929000000     2.620000000
C     4.924000000     0.486000000     1.117000000
C     5.089000000    -0.913000000     0.810000000
H     5.223000000    -1.574000000     1.663000000
C     4.619000000     1.327000000     0.018000000
C     4.548000000     0.819000000    -1.285000000
H     4.343000000     1.502000000    -2.105000000
C     4.689000000    -0.560000000    -1.503000000
O     4.294000000    -1.092000000    -2.664000000
C     2.884000000    -1.494000000    -2.806000000
C     2.080000000    -0.679000000    -3.890000000
C     2.596000000     0.598000000    -4.300000000
H     3.555000000     0.918000000    -3.900000000
C     0.749000000    -0.985000000    -4.274000000
H     0.230000000    -1.841000000    -3.850000000
O     2.819000000    -2.922000000    -2.845000000
H     2.394000000    -1.192000000    -1.868000000
C     4.996000000    -1.481000000    -0.507000000
C     4.867000000    -3.042000000    -0.642000000
H     5.524000000    -3.463000000     0.122000000
H     5.288000000    -3.473000000    -1.553000000
C     3.429000000    -3.597000000    -0.598000000
C     2.510000000    -3.493000000    -1.685000000
C     1.256000000    -4.075000000    -1.614000000
H     0.577000000    -4.019000000    -2.462000000
C     0.819000000    -4.573000000    -0.392000000
O    -0.511000000    -4.963000000    -0.383000000
C    -1.394000000    -4.137000000     0.403000000
H    -1.006000000    -3.110000000     0.482000000
C    -2.734000000    -4.046000000    -0.280000000
C    -3.874000000    -3.838000000     0.483000000
H    -3.853000000    -3.877000000     1.569000000
C    -2.871000000    -4.143000000    -1.732000000
H    -2.032000000    -4.326000000    -2.398000000
C    -4.054000000    -3.836000000    -2.332000000
O    -4.213000000    -3.908000000    -3.675000000
C    -5.136000000    -3.614000000    -1.539000000
H    -6.061000000    -3.456000000    -2.087000000
C    -5.078000000    -3.698000000    -0.165000000
O    -6.198000000    -3.670000000     0.597000000
C    -6.294000000    -3.226000000     1.859000000
C    -6.022000000    -1.857000000     2.056000000
H    -5.817000000    -1.257000000     1.173000000
C    -6.608000000    -4.072000000     2.900000000
H    -6.770000000    -5.121000000     2.665000000
C    -6.712000000    -3.498000000     4.189000000
H    -6.901000000    -4.131000000     5.053000000
C    -6.521000000    -2.136000000     4.369000000
H    -6.526000000    -1.698000000     5.364000000
C    -6.294000000    -1.249000000     3.274000000
O    -6.069000000     0.070000000     3.520000000
C    -4.899000000     0.698000000     3.363000000
C    -4.883000000     1.830000000     2.523000000
H    -5.779000000     2.104000000     1.972000000
C    -3.710000000     2.497000000     2.144000000
O    -3.832000000     3.672000000     1.376000000
C    -3.049000000     4.847000000     1.628000000
C    -1.853000000     5.102000000     1.006000000
H    -1.466000000     4.384000000     0.288000000
C    -3.579000000     5.724000000     2.566000000
H    -4.384000000     5.391000000     3.217000000
C    -2.950000000     6.988000000     2.760000000
H    -3.311000000     7.660000000     3.534000000
C    -1.752000000     7.293000000     2.146000000
H    -1.247000000     8.248000000     2.265000000
C    -1.242000000     6.333000000     1.230000000
O    -0.137000000     6.781000000     0.593000000
C     0.866000000     6.077000000     0.023000000
C     1.425000000     6.613000000    -1.108000000
H     1.012000000     7.483000000    -1.612000000
C     2.505000000     5.888000000    -1.755000000
O     2.877000000     6.425000000    -2.984000000
C     3.289000000     5.503000000    -3.923000000
C     2.596000000     4.276000000    -4.167000000
H     1.658000000     4.060000000    -3.662000000
C     4.392000000     5.892000000    -4.653000000
H     4.873000000     6.849000000    -4.473000000
C     4.844000000     5.105000000    -5.663000000
H     5.704000000     5.548000000    -6.158000000
C     4.092000000     4.003000000    -6.071000000
H     4.440000000     3.498000000    -6.968000000
C     2.997000000     3.552000000    -5.271000000
O     2.362000000     2.479000000    -5.818000000
C     1.864000000     1.382000000    -5.180000000
C     0.535000000     1.110000000    -5.473000000
H    -0.108000000     1.791000000    -6.024000000
C     0.006000000    -0.135000000    -5.078000000
O    -1.301000000    -0.338000000    -5.304000000
C    -1.862000000    -1.611000000    -5.339000000
C    -1.516000000    -2.425000000    -6.352000000
H    -0.847000000    -2.084000000    -7.138000000
C    -2.104000000    -3.687000000    -6.578000000
H    -1.811000000    -4.368000000    -7.373000000
C    -3.031000000    -4.125000000    -5.672000000
H    -3.564000000    -5.057000000    -5.844000000
C    -3.418000000    -3.370000000    -4.553000000
C    -2.789000000    -2.082000000    -4.422000000
H    -2.962000000    -1.404000000    -3.590000000
C    -0.176000000     1.390000000    -2.091000000
H     0.112000000     1.854000000    -3.030000000
C     0.719000000     1.146000000    -1.020000000
H     1.740000000     1.480000000    -1.191000000
C     0.317000000     0.333000000     0.081000000
H     0.970000000     0.058000000     0.855000000
C    -0.988000000    -0.068000000     0.124000000
H    -1.331000000    -0.579000000     1.021000000
C    -1.943000000     0.252000000    -0.857000000
H    -2.998000000     0.022000000    -0.732000000
C    -1.548000000     1.057000000    -1.933000000
C    -2.606000000     1.674000000    -2.857000000
O    -3.732000000     1.190000000    -2.896000000
O    -2.332000000     2.530000000    -3.671000000
O    -5.588000000     0.336000000    -4.496000000
H    -4.806000000     0.548000000    -3.986000000
H    -6.299000000     0.791000000    -4.045000000
O    -1.582000000     0.678000000    -8.344000000
H    -1.877000000     0.885000000    -7.457000000
H    -1.986000000     1.348000000    -8.894000000
O    -2.117000000     7.133000000    -3.415000000
H    -2.794000000     6.950000000    -4.066000000
H    -1.701000000     6.285000000    -3.257000000
O    -8.119000000    -1.958000000    -4.297000000
H    -8.756000000    -1.458000000    -4.806000000
H    -7.960000000    -1.421000000    -3.520000000
O    -5.220000000     0.999000000    -7.291000000
H    -4.413000000     1.368000000    -6.931000000
H    -5.793000000     0.891000000    -6.532000000
O    -5.638000000     6.498000000    -1.073000000
H    -4.741000000     6.435000000    -1.404000000
H    -5.635000000     7.278000000    -0.519000000
O    -7.886000000    -0.164000000    -2.249000000
H    -7.111000000     0.133000000    -1.772000000
H    -8.188000000     0.611000000    -2.722000000
O    -5.215000000     4.188000000    -6.693000000
H    -5.090000000     4.176000000    -5.744000000
H    -6.050000000     3.740000000    -6.830000000
O     0.479000000     7.469000000    -5.075000000
H     0.054000000     6.687000000    -4.724000000
H     0.117000000     8.191000000    -4.562000000
O    -6.655000000     3.862000000    -1.411000000
H    -6.417000000     4.786000000    -1.335000000
H    -7.539000000     3.871000000    -1.776000000
O    -8.485000000     1.735000000    -4.247000000
H    -8.441000000     2.669000000    -4.041000000
H    -9.309000000     1.633000000    -4.723000000
O    -0.815000000     4.950000000    -4.297000000
H    -1.433000000     4.317000000    -3.932000000
H    -0.746000000     4.713000000    -5.222000000
O    -4.185000000     2.783000000    -9.083000000
H    -4.204000000     3.537000000    -8.493000000
H    -4.785000000     2.153000000    -8.685000000
O    -4.173000000     6.598000000    -4.846000000
H    -4.886000000     7.236000000    -4.833000000
H    -4.571000000     5.787000000    -4.528000000
O    -4.930000000     3.988000000    -4.088000000
H    -4.320000000     3.262000000    -3.955000000
H    -5.283000000     4.167000000    -3.216000000
O    -2.984000000     1.963000000    -6.093000000
H    -2.804000000     1.706000000    -5.189000000
H    -2.600000000     2.836000000    -6.175000000
O    -5.743000000    -2.255000000    -5.851000000
H    -6.556000000    -2.149000000    -5.358000000
H    -5.209000000    -1.503000000    -5.597000000
O    -1.398000000     4.506000000    -6.946000000
H    -0.678000000     4.342000000    -7.555000000
H    -1.592000000     5.438000000    -7.050000000
O    -5.594000000     1.304000000    -0.910000000
H    -4.895000000     1.198000000    -1.555000000
H    -5.888000000     2.208000000    -1.022000000
