215
-1474.02494
C    -3.001000000     2.017000000     2.311000000
H    -2.037000000     2.519000000     2.334000000
C    -3.070000000     0.796000000     3.091000000
C    -4.209000000     0.020000000     2.991000000
H    -4.242000000    -0.846000000     3.647000000
C    -1.847000000     0.386000000     3.861000000
O    -1.181000000     1.452000000     4.505000000
H    -1.083000000     0.089000000     3.128000000
O    -2.054000000    -0.726000000     4.760000000
C    -1.258000000    -1.776000000     4.507000000
C    -1.710000000    -2.679000000     3.577000000
H    -2.787000000    -2.689000000     3.429000000
C    -0.838000000    -3.587000000     2.993000000
O    -1.425000000    -4.255000000     1.972000000
C     0.525000000    -3.692000000     3.398000000
C     1.424000000    -4.677000000     2.774000000
H     2.314000000    -4.845000000     3.384000000
C     1.959000000    -4.189000000     1.416000000
C     3.126000000    -3.476000000     1.418000000
H     3.679000000    -3.428000000     2.353000000
H     0.970000000    -5.657000000     2.612000000
C     0.930000000    -2.821000000     4.376000000
H     1.970000000    -2.855000000     4.691000000
C     0.101000000    -1.810000000     4.866000000
C     0.704000000    -0.694000000     5.707000000
H     1.522000000    -1.058000000     6.333000000
H    -0.119000000    -0.352000000     6.338000000
C     1.053000000     0.531000000     4.871000000
C     2.360000000     0.592000000     4.453000000
H     2.987000000    -0.244000000     4.753000000
C     0.172000000     1.553000000     4.442000000
C     0.747000000     2.591000000     3.668000000
H     0.047000000     3.336000000     3.296000000
C     2.048000000     2.591000000     3.255000000
O     2.422000000     3.665000000     2.455000000
C     2.565000000     3.441000000     1.049000000
C     2.135000000     4.559000000     0.073000000
C     2.403000000     4.585000000    -1.303000000
H     3.089000000     3.859000000    -1.732000000
C     1.173000000     5.417000000     0.616000000
H     0.870000000     5.413000000     1.660000000
O     3.967000000     3.090000000     0.798000000
H     2.002000000     2.537000000     0.774000000
C     2.926000000     1.557000000     3.647000000
C     4.350000000     1.529000000     3.209000000
H     4.933000000     1.022000000     3.980000000
H     4.745000000     2.545000000     3.277000000
C     4.604000000     0.992000000     1.824000000
C     5.105000000    -0.323000000     1.638000000
H     5.340000000    -0.944000000     2.498000000
C     4.303000000     1.760000000     0.711000000
C     4.397000000     1.262000000    -0.570000000
H     4.162000000     1.917000000    -1.405000000
C     4.724000000    -0.073000000    -0.677000000
O     4.609000000    -0.543000000    -1.937000000
C     3.339000000    -1.158000000    -2.293000000
C     2.959000000    -0.746000000    -3.723000000
C     3.634000000     0.356000000    -4.334000000
H     4.395000000     0.947000000    -3.831000000
C     1.855000000    -1.298000000    -4.348000000
H     1.313000000    -2.101000000    -3.856000000
O     3.472000000    -2.569000000    -2.172000000
H     2.487000000    -0.796000000    -1.698000000
C     5.095000000    -0.899000000     0.405000000
C     5.112000000    -2.402000000     0.317000000
H     5.677000000    -2.822000000     1.152000000
H     5.628000000    -2.734000000    -0.586000000
C     3.720000000    -2.997000000     0.242000000
C     2.956000000    -3.061000000    -0.966000000
C     1.714000000    -3.743000000    -0.963000000
H     1.134000000    -3.822000000    -1.879000000
C     1.220000000    -4.255000000     0.202000000
O     0.050000000    -4.875000000     0.204000000
C    -1.118000000    -4.061000000     0.546000000
H    -0.783000000    -3.025000000     0.389000000
C    -2.338000000    -4.213000000    -0.301000000
C    -3.635000000    -4.374000000     0.167000000
H    -3.727000000    -4.509000000     1.242000000
C    -2.245000000    -3.934000000    -1.663000000
H    -1.286000000    -3.703000000    -2.120000000
C    -3.357000000    -3.932000000    -2.465000000
O    -3.394000000    -3.548000000    -3.831000000
C    -4.644000000    -4.139000000    -1.984000000
H    -5.527000000    -3.882000000    -2.564000000
C    -4.769000000    -4.452000000    -0.652000000
O    -6.052000000    -4.481000000    -0.157000000
C    -6.431000000    -3.809000000     0.977000000
C    -6.335000000    -2.420000000     1.062000000
H    -5.835000000    -1.850000000     0.284000000
C    -7.092000000    -4.493000000     2.027000000
H    -7.161000000    -5.577000000     2.018000000
C    -7.453000000    -3.871000000     3.216000000
H    -7.858000000    -4.447000000     4.044000000
C    -7.238000000    -2.490000000     3.294000000
H    -7.649000000    -2.051000000     4.199000000
C    -6.751000000    -1.794000000     2.218000000
O    -6.528000000    -0.416000000     2.395000000
C    -5.310000000     0.290000000     2.183000000
C    -5.218000000     1.483000000     1.464000000
H    -6.043000000     1.728000000     0.800000000
C    -4.050000000     2.240000000     1.390000000
O    -3.988000000     3.407000000     0.627000000
C    -3.449000000     4.554000000     1.105000000
C    -2.257000000     5.010000000     0.502000000
H    -1.903000000     4.514000000    -0.398000000
C    -3.983000000     5.221000000     2.186000000
H    -4.900000000     4.852000000     2.637000000
C    -3.411000000     6.407000000     2.617000000
H    -3.699000000     6.840000000     3.571000000
C    -2.282000000     6.863000000     1.970000000
H    -1.647000000     7.669000000     2.329000000
C    -1.755000000     6.227000000     0.907000000
O    -0.728000000     6.865000000     0.246000000
C     0.409000000     6.258000000    -0.224000000
C     0.690000000     6.333000000    -1.568000000
H     0.169000000     7.000000000    -2.251000000
C     1.709000000     5.533000000    -2.114000000
O     1.733000000     5.510000000    -3.488000000
C     2.767000000     5.020000000    -4.314000000
C     2.714000000     3.687000000    -4.726000000
H     1.936000000     3.033000000    -4.341000000
C     3.650000000     5.888000000    -4.935000000
H     3.688000000     6.905000000    -4.554000000
C     4.583000000     5.420000000    -5.830000000
H     5.277000000     6.130000000    -6.272000000
C     4.632000000     4.064000000    -6.215000000
H     5.238000000     3.777000000    -7.072000000
C     3.661000000     3.236000000    -5.725000000
O     3.672000000     1.958000000    -6.210000000
C     3.174000000     0.843000000    -5.563000000
C     2.091000000     0.167000000    -6.207000000
H     1.690000000     0.520000000    -7.154000000
C     1.425000000    -0.835000000    -5.591000000
O     0.185000000    -1.216000000    -6.028000000
C    -0.499000000    -2.403000000    -5.770000000
C     0.086000000    -3.627000000    -6.049000000
H     1.064000000    -3.572000000    -6.521000000
C    -0.475000000    -4.850000000    -5.650000000
H    -0.109000000    -5.773000000    -6.094000000
C    -1.595000000    -4.845000000    -4.885000000
H    -2.041000000    -5.812000000    -4.670000000
C    -2.207000000    -3.597000000    -4.585000000
C    -1.725000000    -2.388000000    -5.081000000
H    -2.188000000    -1.486000000    -4.688000000
C    -1.120000000     1.389000000    -1.430000000
H    -0.864000000     2.128000000    -2.185000000
C    -0.207000000     0.920000000    -0.481000000
H     0.768000000     1.400000000    -0.517000000
C    -0.542000000    -0.097000000     0.374000000
H     0.213000000    -0.586000000     1.037000000
C    -1.835000000    -0.628000000     0.346000000
H    -2.165000000    -1.453000000     0.972000000
C    -2.786000000    -0.060000000    -0.569000000
H    -3.769000000    -0.524000000    -0.582000000
C    -2.419000000     0.931000000    -1.442000000
C    -3.297000000     1.396000000    -2.575000000
O    -4.321000000     0.825000000    -2.771000000
O    -3.080000000     2.453000000    -3.167000000
O    -5.540000000    -0.761000000    -4.398000000
H    -5.297000000     0.087000000    -4.026000000
H    -5.081000000    -1.402000000    -3.855000000
O    -8.906000000     0.506000000     0.296000000
H    -8.030000000     0.138000000     0.181000000
H    -8.825000000     1.413000000     0.001000000
O    -0.994000000     0.757000000    -8.018000000
H    -1.118000000    -0.192000000    -8.015000000
H    -1.455000000     1.060000000    -7.235000000
O    -4.293000000     4.728000000    -3.678000000
H    -4.020000000     3.815000000    -3.583000000
H    -3.472000000     5.219000000    -3.724000000
O    -4.184000000     4.724000000    -7.585000000
H    -4.773000000     3.975000000    -7.496000000
H    -3.373000000     4.443000000    -7.160000000
O    -2.748000000     1.998000000    -5.739000000
H    -2.522000000     2.903000000    -5.953000000
H    -2.819000000     1.988000000    -4.784000000
O    -6.867000000     5.034000000    -4.949000000
H    -5.982000000     5.272000000    -4.671000000
H    -6.742000000     4.580000000    -5.782000000
O    -5.051000000     0.750000000    -6.677000000
H    -5.040000000     0.011000000    -6.069000000
H    -4.228000000     1.210000000    -6.510000000
O    -5.836000000     6.696000000    -1.839000000
H    -5.195000000     6.011000000    -2.028000000
H    -5.349000000     7.347000000    -1.333000000
O    -6.357000000     3.028000000    -7.158000000
H    -6.824000000     2.791000000    -7.959000000
H    -5.794000000     2.275000000    -6.976000000
O    -1.760000000     4.475000000    -6.464000000
H    -1.212000000     4.445000000    -5.680000000
H    -1.147000000     4.362000000    -7.190000000
O    -7.130000000     4.404000000     1.085000000
H    -6.679000000     4.450000000     0.242000000
H    -8.044000000     4.598000000     0.879000000
O    -7.812000000     4.932000000    -2.465000000
H    -7.641000000     4.689000000    -3.375000000
H    -7.176000000     5.623000000    -2.278000000
O    -8.225000000     1.109000000    -4.911000000
H    -7.924000000     0.997000000    -5.813000000
H    -7.498000000     1.544000000    -4.467000000
O    -1.934000000     6.220000000    -3.812000000
H    -2.267000000     6.531000000    -4.654000000
H    -2.205000000     6.890000000    -3.185000000
O    -6.407000000     2.237000000    -3.470000000
H    -5.630000000     1.776000000    -3.155000000
H    -6.108000000     3.133000000    -3.624000000
O    -0.585000000     3.703000000    -4.080000000
H    -1.215000000     3.240000000    -3.527000000
H    -0.785000000     4.630000000    -3.946000000
O    -6.829000000     0.087000000    -1.484000000
H    -5.890000000     0.022000000    -1.661000000
H    -7.127000000     0.809000000    -2.037000000
O    -8.232000000    -2.163000000    -2.001000000
H    -7.782000000    -1.362000000    -1.733000000
H    -8.644000000    -1.939000000    -2.835000000
