215
-1450.44696
C    -2.271000000     0.947000000     4.683000000
H    -1.328000000     1.123000000     5.193000000
C    -2.516000000    -0.278000000     4.053000000
C    -3.755000000    -0.444000000     3.458000000
H    -3.933000000    -1.288000000     2.797000000
C    -1.324000000    -1.198000000     3.790000000
O    -0.275000000    -0.964000000     4.878000000
H    -0.874000000    -0.868000000     2.842000000
O    -1.661000000    -2.595000000     3.804000000
C    -1.029000000    -3.512000000     2.954000000
C    -1.770000000    -3.777000000     1.784000000
H    -2.805000000    -3.463000000     1.674000000
C    -1.279000000    -4.588000000     0.819000000
O    -2.083000000    -4.727000000    -0.333000000
C     0.144000000    -4.889000000     0.834000000
C     0.789000000    -5.566000000    -0.318000000
H     1.576000000    -6.172000000     0.137000000
C     1.329000000    -4.565000000    -1.353000000
C     2.671000000    -4.157000000    -1.205000000
H     3.297000000    -4.454000000    -0.368000000
H     0.119000000    -6.274000000    -0.810000000
C     0.912000000    -4.471000000     1.949000000
H     1.983000000    -4.647000000     1.901000000
C     0.284000000    -3.816000000     3.031000000
C     1.066000000    -3.493000000     4.306000000
H     1.924000000    -4.167000000     4.261000000
H     0.517000000    -3.522000000     5.249000000
C     1.785000000    -2.088000000     4.180000000
C     3.074000000    -1.914000000     3.648000000
H     3.601000000    -2.793000000     3.287000000
C     1.082000000    -0.913000000     4.492000000
C     1.609000000     0.328000000     4.239000000
H     1.016000000     1.190000000     4.529000000
C     2.845000000     0.504000000     3.714000000
O     3.180000000     1.802000000     3.311000000
C     2.960000000     2.259000000     1.916000000
C     2.356000000     3.660000000     1.879000000
C     2.322000000     4.300000000     0.626000000
H     2.780000000     3.861000000    -0.257000000
C     1.637000000     4.236000000     2.961000000
H     1.543000000     3.665000000     3.881000000
O     4.112000000     2.105000000     1.096000000
H     2.142000000     1.647000000     1.507000000
C     3.588000000    -0.605000000     3.300000000
C     4.919000000    -0.511000000     2.495000000
H     5.515000000    -1.375000000     2.797000000
H     5.537000000     0.327000000     2.822000000
C     4.663000000    -0.357000000     1.051000000
C     4.714000000    -1.487000000     0.291000000
H     4.990000000    -2.419000000     0.777000000
C     4.361000000     0.885000000     0.470000000
C     4.154000000     0.925000000    -0.922000000
H     3.931000000     1.874000000    -1.403000000
C     4.246000000    -0.182000000    -1.757000000
O     3.944000000    -0.095000000    -3.126000000
C     2.574000000    -0.341000000    -3.404000000
C     1.927000000     0.727000000    -4.352000000
C     2.440000000     2.029000000    -4.286000000
H     3.304000000     2.284000000    -3.676000000
C     0.770000000     0.500000000    -5.059000000
H     0.214000000    -0.397000000    -4.799000000
O     2.667000000    -1.616000000    -3.886000000
H     1.918000000    -0.372000000    -2.522000000
C     4.472000000    -1.405000000    -1.070000000
C     4.545000000    -2.649000000    -1.874000000
H     5.221000000    -3.384000000    -1.433000000
H     4.847000000    -2.400000000    -2.894000000
C     3.097000000    -3.150000000    -2.064000000
C     2.239000000    -2.597000000    -3.011000000
C     1.010000000    -3.222000000    -3.309000000
H     0.431000000    -3.022000000    -4.206000000
C     0.520000000    -4.131000000    -2.391000000
O    -0.845000000    -4.443000000    -2.426000000
C    -1.804000000    -3.866000000    -1.475000000
H    -1.299000000    -3.006000000    -1.010000000
C    -3.089000000    -3.321000000    -2.161000000
C    -4.111000000    -2.827000000    -1.347000000
H    -4.160000000    -2.884000000    -0.262000000
C    -3.132000000    -3.157000000    -3.570000000
H    -2.321000000    -3.467000000    -4.224000000
C    -4.168000000    -2.387000000    -4.123000000
O    -4.147000000    -1.932000000    -5.452000000
C    -5.229000000    -2.000000000    -3.373000000
H    -6.030000000    -1.385000000    -3.776000000
C    -5.244000000    -2.215000000    -1.931000000
O    -6.350000000    -1.711000000    -1.255000000
C    -6.500000000    -1.798000000     0.173000000
C    -6.176000000    -0.697000000     0.990000000
H    -5.771000000     0.209000000     0.548000000
C    -7.015000000    -2.945000000     0.734000000
H    -7.173000000    -3.841000000     0.139000000
C    -7.221000000    -2.941000000     2.131000000
H    -7.652000000    -3.819000000     2.604000000
C    -7.011000000    -1.798000000     2.930000000
H    -7.006000000    -1.830000000     4.016000000
C    -6.423000000    -0.694000000     2.338000000
O    -6.080000000     0.317000000     3.154000000
C    -4.815000000     0.520000000     3.720000000
C    -4.562000000     1.651000000     4.424000000
H    -5.349000000     2.358000000     4.671000000
C    -3.295000000     1.829000000     4.953000000
O    -3.070000000     2.928000000     5.766000000
C    -1.831000000     3.632000000     5.779000000
C    -1.256000000     4.150000000     4.619000000
H    -1.627000000     3.941000000     3.619000000
C    -1.322000000     3.901000000     7.024000000
H    -1.943000000     3.673000000     7.886000000
C    -0.099000000     4.578000000     7.094000000
H     0.253000000     4.823000000     8.093000000
C     0.437000000     5.302000000     6.020000000
H     1.362000000     5.872000000     6.063000000
C    -0.184000000     5.071000000     4.801000000
O     0.187000000     5.925000000     3.787000000
C     0.955000000     5.441000000     2.763000000
C     0.923000000     6.043000000     1.507000000
H     0.461000000     7.004000000     1.296000000
C     1.636000000     5.509000000     0.448000000
O     1.584000000     6.115000000    -0.774000000
C     2.522000000     5.870000000    -1.818000000
C     1.999000000     5.328000000    -2.983000000
H     0.929000000     5.172000000    -3.091000000
C     3.890000000     6.166000000    -1.716000000
H     4.405000000     6.550000000    -0.839000000
C     4.691000000     5.892000000    -2.822000000
H     5.721000000     6.193000000    -2.649000000
C     4.226000000     5.292000000    -3.987000000
H     4.791000000     5.096000000    -4.895000000
C     2.892000000     4.901000000    -4.012000000
O     2.359000000     4.270000000    -5.058000000
C     1.835000000     3.035000000    -5.046000000
C     0.799000000     2.729000000    -5.888000000
H     0.383000000     3.564000000    -6.447000000
C     0.248000000     1.468000000    -5.920000000
O    -0.822000000     1.293000000    -6.730000000
C    -1.437000000     0.061000000    -6.895000000
C    -0.716000000    -0.926000000    -7.589000000
H     0.218000000    -0.758000000    -8.118000000
C    -1.290000000    -2.254000000    -7.705000000
H    -0.788000000    -3.042000000    -8.260000000
C    -2.388000000    -2.591000000    -6.960000000
H    -2.725000000    -3.624000000    -6.950000000
C    -3.033000000    -1.593000000    -6.217000000
C    -2.585000000    -0.293000000    -6.239000000
H    -3.059000000     0.513000000    -5.685000000
C    -0.898000000     2.003000000    -1.176000000
H    -0.922000000     2.931000000    -1.742000000
C     0.314000000     1.409000000    -0.965000000
H     1.258000000     1.816000000    -1.318000000
C     0.318000000     0.224000000    -0.255000000
H     1.199000000    -0.281000000    -0.091000000
C    -0.894000000    -0.372000000     0.185000000
H    -0.837000000    -1.326000000     0.703000000
C    -2.124000000     0.198000000    -0.147000000
H    -3.117000000    -0.207000000     0.032000000
C    -2.159000000     1.443000000    -0.865000000
C    -3.495000000     2.130000000    -1.326000000
O    -4.586000000     1.685000000    -1.011000000
O    -3.470000000     3.218000000    -1.843000000
O    -6.058000000     5.075000000     3.694000000
H    -5.310000000     5.393000000     3.189000000
H    -6.799000000     5.590000000     3.376000000
O    -4.856000000     2.344000000    -4.114000000
H    -5.249000000     1.539000000    -3.775000000
H    -4.643000000     2.854000000    -3.333000000
O    -1.152000000     6.995000000    -3.508000000
H    -1.335000000     7.093000000    -4.443000000
H    -1.382000000     6.087000000    -3.313000000
O    -8.472000000     2.803000000    -1.940000000
H    -9.124000000     2.173000000    -1.634000000
H    -7.780000000     2.263000000    -2.323000000
O    -6.107000000     3.525000000     0.579000000
H    -6.453000000     3.212000000     1.415000000
H    -5.681000000     2.759000000     0.194000000
O    -2.581000000     5.419000000    -0.578000000
H    -3.047000000     4.740000000    -1.066000000
H    -1.686000000     5.384000000    -0.915000000
O    -8.836000000     4.871000000     0.893000000
H    -8.320000000     4.128000000     0.580000000
H    -9.274000000     4.545000000     1.679000000
O    -7.825000000     2.994000000     2.983000000
H    -7.176000000     3.640000000     3.262000000
H    -8.297000000     2.767000000     3.784000000
O    -4.257000000     5.353000000     1.481000000
H    -4.950000000     4.748000000     1.217000000
H    -3.756000000     5.508000000     0.680000000
O    -8.070000000     1.569000000    -5.307000000
H    -7.118000000     1.629000000    -5.393000000
H    -8.242000000     0.635000000    -5.189000000
O    -3.588000000     8.009000000    -0.034000000
H    -3.266000000     7.222000000    -0.474000000
H    -3.720000000     7.739000000     0.874000000
O    -1.799000000     4.435000000    -3.590000000
H    -2.449000000     4.041000000    -3.008000000
H    -1.257000000     3.699000000    -3.876000000
O    -9.043000000     5.362000000    -1.904000000
H    -9.092000000     5.563000000    -0.969000000
H    -8.833000000     4.429000000    -1.938000000
O    -4.013000000     6.145000000    -5.343000000
H    -3.616000000     5.893000000    -4.510000000
H    -4.902000000     6.415000000    -5.113000000
O    -3.437000000     3.055000000    -6.207000000
H    -4.074000000     3.091000000    -5.493000000
H    -3.451000000     3.933000000    -6.586000000
O    -5.468000000     4.941000000    -2.081000000
H    -5.751000000     5.439000000    -1.313000000
H    -4.921000000     4.242000000    -1.724000000
O    -6.605000000     0.902000000    -2.612000000
H    -6.620000000    -0.052000000    -2.537000000
H    -5.947000000     1.182000000    -1.977000000
O    -6.846000000     4.721000000    -4.625000000
H    -6.363000000     4.882000000    -3.815000000
H    -7.204000000     3.839000000    -4.519000000
O    -9.327000000     0.900000000     1.788000000
H    -8.641000000     1.527000000     2.017000000
H    -9.655000000     0.586000000     2.631000000
