215
-1431.53717
C    -2.071000000     1.151000000     4.334000000
H    -1.060000000     1.457000000     4.590000000
C    -2.272000000    -0.167000000     3.909000000
C    -3.528000000    -0.567000000     3.573000000
H    -3.604000000    -1.589000000     3.211000000
C    -1.045000000    -1.143000000     3.831000000
O    -0.094000000    -0.879000000     4.923000000
H    -0.542000000    -0.915000000     2.880000000
O    -1.450000000    -2.434000000     3.854000000
C    -1.002000000    -3.374000000     3.000000000
C    -1.763000000    -3.590000000     1.838000000
H    -2.767000000    -3.195000000     1.706000000
C    -1.297000000    -4.368000000     0.813000000
O    -1.995000000    -4.441000000    -0.329000000
C     0.010000000    -4.876000000     0.904000000
C     0.628000000    -5.502000000    -0.314000000
H     1.396000000    -6.220000000    -0.018000000
C     1.195000000    -4.531000000    -1.319000000
C     2.601000000    -4.190000000    -1.232000000
H     3.076000000    -4.528000000    -0.315000000
H    -0.130000000    -6.128000000    -0.789000000
C     0.843000000    -4.594000000     1.986000000
H     1.764000000    -5.112000000     2.238000000
C     0.304000000    -3.823000000     3.009000000
C     1.206000000    -3.455000000     4.191000000
H     2.051000000    -4.145000000     4.141000000
H     0.673000000    -3.576000000     5.136000000
C     1.843000000    -2.096000000     4.082000000
C     3.087000000    -2.035000000     3.586000000
H     3.638000000    -2.927000000     3.301000000
C     1.225000000    -0.926000000     4.519000000
C     1.836000000     0.266000000     4.346000000
H     1.397000000     1.246000000     4.520000000
C     3.033000000     0.323000000     3.605000000
O     3.552000000     1.536000000     3.269000000
C     3.264000000     1.968000000     1.943000000
C     2.546000000     3.291000000     1.942000000
C     2.223000000     3.757000000     0.689000000
H     2.619000000     3.285000000    -0.207000000
C     1.989000000     3.923000000     3.054000000
H     2.084000000     3.487000000     4.046000000
O     4.526000000     1.908000000     1.246000000
H     2.596000000     1.311000000     1.367000000
C     3.683000000    -0.809000000     3.282000000
C     5.029000000    -0.782000000     2.666000000
H     5.440000000    -1.758000000     2.932000000
H     5.660000000    -0.093000000     3.232000000
C     4.934000000    -0.501000000     1.145000000
C     4.959000000    -1.626000000     0.356000000
H     5.073000000    -2.640000000     0.731000000
C     4.766000000     0.805000000     0.516000000
C     4.705000000     0.870000000    -0.872000000
H     4.486000000     1.839000000    -1.314000000
C     4.640000000    -0.284000000    -1.666000000
O     4.365000000    -0.204000000    -3.003000000
C     3.019000000    -0.487000000    -3.444000000
C     2.348000000     0.438000000    -4.408000000
C     2.617000000     1.756000000    -4.300000000
H     3.289000000     2.127000000    -3.531000000
C     1.386000000     0.072000000    -5.323000000
H     1.097000000    -0.975000000    -5.323000000
O     2.966000000    -1.830000000    -3.973000000
H     2.296000000    -0.306000000    -2.635000000
C     4.829000000    -1.522000000    -1.053000000
C     4.673000000    -2.809000000    -1.851000000
H     5.240000000    -3.581000000    -1.325000000
H     5.183000000    -2.793000000    -2.817000000
C     3.183000000    -3.246000000    -2.093000000
C     2.418000000    -2.714000000    -3.157000000
C     1.020000000    -3.093000000    -3.241000000
H     0.424000000    -2.779000000    -4.094000000
C     0.402000000    -3.993000000    -2.347000000
O    -0.946000000    -4.074000000    -2.380000000
C    -1.720000000    -3.461000000    -1.333000000
H    -1.038000000    -2.726000000    -0.878000000
C    -3.008000000    -2.660000000    -1.843000000
C    -4.336000000    -2.811000000    -1.355000000
H    -4.604000000    -3.430000000    -0.502000000
C    -2.852000000    -1.878000000    -2.962000000
H    -1.898000000    -1.876000000    -3.485000000
C    -3.950000000    -1.148000000    -3.500000000
O    -3.897000000    -0.273000000    -4.589000000
C    -5.213000000    -1.146000000    -2.865000000
H    -6.029000000    -0.566000000    -3.289000000
C    -5.364000000    -2.069000000    -1.861000000
O    -6.589000000    -2.097000000    -1.197000000
C    -6.714000000    -2.021000000     0.218000000
C    -6.073000000    -1.096000000     1.046000000
H    -5.507000000    -0.292000000     0.583000000
C    -7.301000000    -3.116000000     0.760000000
H    -7.662000000    -3.941000000     0.150000000
C    -7.519000000    -3.209000000     2.121000000
H    -8.086000000    -3.971000000     2.650000000
C    -6.908000000    -2.287000000     2.980000000
H    -7.159000000    -2.322000000     4.037000000
C    -6.207000000    -1.194000000     2.425000000
O    -5.852000000    -0.246000000     3.336000000
C    -4.627000000     0.249000000     3.604000000
C    -4.510000000     1.518000000     4.037000000
H    -5.350000000     2.190000000     4.190000000
C    -3.185000000     2.020000000     4.402000000
O    -3.134000000     3.345000000     4.689000000
C    -2.056000000     4.082000000     5.206000000
C    -1.051000000     4.453000000     4.288000000
H    -1.064000000     4.030000000     3.287000000
C    -2.061000000     4.564000000     6.519000000
H    -2.949000000     4.415000000     7.129000000
C    -0.939000000     5.219000000     7.076000000
H    -0.968000000     5.559000000     8.108000000
C     0.015000000     5.667000000     6.183000000
H     0.850000000     6.216000000     6.611000000
C    -0.039000000     5.251000000     4.837000000
O     0.886000000     5.792000000     3.962000000
C     1.352000000     5.116000000     2.854000000
C     1.008000000     5.627000000     1.626000000
H     0.400000000     6.524000000     1.537000000
C     1.403000000     4.877000000     0.518000000
O     1.183000000     5.271000000    -0.796000000
C     2.111000000     5.169000000    -1.771000000
C     1.844000000     4.649000000    -3.054000000
H     0.841000000     4.264000000    -3.217000000
C     3.460000000     5.690000000    -1.627000000
H     3.720000000     6.146000000    -0.675000000
C     4.383000000     5.654000000    -2.618000000
H     5.345000000     6.127000000    -2.438000000
C     4.075000000     5.105000000    -3.847000000
H     4.813000000     5.055000000    -4.643000000
C     2.787000000     4.603000000    -4.068000000
O     2.424000000     3.979000000    -5.261000000
C     2.177000000     2.668000000    -5.261000000
C     1.305000000     2.254000000    -6.210000000
H     0.909000000     2.983000000    -6.912000000
C     0.902000000     0.955000000    -6.250000000
O    -0.056000000     0.646000000    -7.219000000
C    -1.249000000     0.066000000    -7.063000000
C    -1.829000000    -0.749000000    -8.088000000
H    -1.369000000    -0.834000000    -9.069000000
C    -3.145000000    -1.211000000    -8.011000000
H    -3.607000000    -1.686000000    -8.872000000
C    -3.806000000    -1.094000000    -6.788000000
H    -4.851000000    -1.389000000    -6.729000000
C    -3.156000000    -0.494000000    -5.730000000
C    -1.901000000     0.063000000    -5.832000000
H    -1.553000000     0.630000000    -4.972000000
C    -0.213000000     1.715000000    -1.564000000
H    -0.367000000     2.623000000    -2.141000000
C     1.031000000     1.133000000    -1.306000000
H     1.948000000     1.604000000    -1.650000000
C     1.140000000    -0.052000000    -0.512000000
H     2.148000000    -0.346000000    -0.183000000
C     0.045000000    -0.586000000     0.130000000
H     0.122000000    -1.509000000     0.698000000
C    -1.204000000    -0.071000000    -0.136000000
H    -2.081000000    -0.573000000     0.264000000
C    -1.326000000     1.038000000    -1.038000000
C    -2.726000000     1.483000000    -1.369000000
O    -3.593000000     1.212000000    -0.562000000
O    -2.935000000     2.344000000    -2.132000000
O    -2.434000000     4.582000000    -0.729000000
H    -2.741000000     4.119000000     0.050000000
H    -2.402000000     3.911000000    -1.410000000
O    -5.169000000     2.377000000    -3.412000000
H    -5.949000000     2.048000000    -2.966000000
H    -4.444000000     2.145000000    -2.831000000
O    -0.579000000     5.816000000    -6.099000000
H    -0.425000000     5.160000000    -5.419000000
H     0.297000000     6.098000000    -6.362000000
O    -4.962000000     5.017000000    -1.916000000
H    -4.219000000     5.348000000    -1.411000000
H    -4.700000000     4.135000000    -2.178000000
O    -5.705000000     6.947000000     0.630000000
H    -6.074000000     7.830000000     0.607000000
H    -6.354000000     6.405000000     0.181000000
O    -6.337000000     3.726000000     0.604000000
H    -6.589000000     4.022000000     1.478000000
H    -5.493000000     4.148000000     0.442000000
O    -3.401000000     7.508000000    -0.814000000
H    -2.681000000     7.035000000    -0.398000000
H    -4.151000000     7.358000000    -0.239000000
O    -3.352000000     2.923000000     1.376000000
H    -3.433000000     2.529000000     2.245000000
H    -3.444000000     2.187000000     0.771000000
O    -0.946000000    -3.420000000    -6.090000000
H    -1.065000000    -4.166000000    -5.501000000
H    -1.760000000    -2.923000000    -6.015000000
O    -8.436000000    -0.532000000    -4.242000000
H    -8.963000000    -0.691000000    -5.025000000
H    -8.679000000    -1.237000000    -3.642000000
O    -1.690000000     6.189000000    -3.433000000
H    -1.855000000     6.062000000    -2.499000000
H    -1.832000000     5.326000000    -3.822000000
O    -1.952000000     3.462000000    -4.248000000
H    -2.223000000     2.948000000    -3.487000000
H    -2.754000000     3.579000000    -4.756000000
O    -7.081000000     1.557000000    -5.982000000
H    -6.907000000     0.692000000    -6.355000000
H    -7.000000000     1.431000000    -5.037000000
O    -4.933000000     5.453000000    -6.285000000
H    -4.642000000     4.551000000    -6.420000000
H    -4.966000000     5.554000000    -5.334000000
O    -3.973000000     2.797000000    -5.916000000
H    -4.356000000     2.531000000    -5.080000000
H    -3.955000000     1.995000000    -6.438000000
O    -5.425000000     7.449000000    -3.209000000
H    -4.658000000     8.013000000    -3.109000000
H    -5.174000000     6.627000000    -2.787000000
O    -6.281000000     1.541000000    -1.129000000
H    -6.246000000     2.384000000    -0.678000000
H    -5.489000000     1.085000000    -0.845000000
O    -7.595000000     5.036000000    -1.588000000
H    -7.770000000     4.336000000    -0.958000000
H    -6.644000000     5.030000000    -1.696000000
O    -9.097000000     0.885000000    -1.867000000
H    -8.749000000     0.436000000    -2.637000000
H    -8.394000000     0.832000000    -1.220000000
