215
-1452.79774
C    -2.382000000     1.144000000     3.217000000
H    -1.355000000     1.498000000     3.223000000
C    -2.645000000    -0.222000000     3.478000000
C    -3.954000000    -0.711000000     3.392000000
H    -4.168000000    -1.752000000     3.621000000
C    -1.435000000    -1.116000000     3.786000000
O    -0.533000000    -0.698000000     4.842000000
H    -0.789000000    -0.964000000     2.909000000
O    -1.898000000    -2.476000000     3.946000000
C    -1.254000000    -3.383000000     3.126000000
C    -1.851000000    -3.764000000     1.970000000
H    -2.908000000    -3.540000000     1.846000000
C    -1.178000000    -4.508000000     1.017000000
O    -1.789000000    -4.678000000    -0.151000000
C     0.125000000    -4.888000000     1.291000000
C     0.922000000    -5.539000000     0.112000000
H     1.668000000    -6.170000000     0.599000000
C     1.492000000    -4.668000000    -0.928000000
C     2.823000000    -4.184000000    -0.752000000
H     3.368000000    -4.536000000     0.120000000
H     0.179000000    -6.250000000    -0.256000000
C     0.726000000    -4.508000000     2.488000000
H     1.782000000    -4.591000000     2.730000000
C     0.015000000    -3.740000000     3.451000000
C     0.782000000    -3.278000000     4.724000000
H     1.522000000    -3.958000000     5.152000000
H     0.074000000    -3.158000000     5.546000000
C     1.499000000    -1.942000000     4.423000000
C     2.822000000    -1.820000000     3.963000000
H     3.364000000    -2.740000000     3.757000000
C     0.822000000    -0.764000000     4.602000000
C     1.437000000     0.478000000     4.436000000
H     0.867000000     1.397000000     4.543000000
C     2.750000000     0.507000000     3.888000000
O     3.267000000     1.775000000     3.701000000
C     3.288000000     2.234000000     2.329000000
C     2.771000000     3.662000000     2.125000000
C     2.891000000     4.269000000     0.854000000
H     3.396000000     3.846000000    -0.010000000
C     2.071000000     4.312000000     3.129000000
H     1.994000000     3.880000000     4.124000000
O     4.506000000     2.061000000     1.597000000
H     2.591000000     1.568000000     1.799000000
C     3.443000000    -0.610000000     3.718000000
C     4.828000000    -0.544000000     3.098000000
H     5.284000000    -1.504000000     3.346000000
H     5.493000000     0.254000000     3.436000000
C     4.706000000    -0.393000000     1.596000000
C     4.762000000    -1.532000000     0.820000000
H     4.992000000    -2.479000000     1.303000000
C     4.610000000     0.857000000     0.905000000
C     4.427000000     0.918000000    -0.499000000
H     4.397000000     1.886000000    -0.994000000
C     4.427000000    -0.281000000    -1.240000000
O     4.350000000    -0.069000000    -2.563000000
C     3.162000000    -0.647000000    -3.109000000
C     2.611000000     0.327000000    -4.129000000
C     2.966000000     1.685000000    -4.056000000
H     3.577000000     2.160000000    -3.293000000
C     1.786000000    -0.103000000    -5.144000000
H     1.418000000    -1.126000000    -5.149000000
O     3.258000000    -1.979000000    -3.642000000
H     2.430000000    -0.621000000    -2.289000000
C     4.603000000    -1.483000000    -0.579000000
C     4.828000000    -2.771000000    -1.346000000
H     5.401000000    -3.519000000    -0.793000000
H     5.358000000    -2.556000000    -2.277000000
C     3.453000000    -3.310000000    -1.698000000
C     2.728000000    -2.947000000    -2.819000000
C     1.438000000    -3.342000000    -2.960000000
H     0.959000000    -2.888000000    -3.824000000
C     0.757000000    -4.197000000    -2.054000000
O    -0.607000000    -4.357000000    -2.148000000
C    -1.446000000    -3.732000000    -1.207000000
H    -0.892000000    -2.859000000    -0.831000000
C    -2.687000000    -3.074000000    -1.816000000
C    -3.963000000    -3.231000000    -1.311000000
H    -4.005000000    -3.907000000    -0.461000000
C    -2.583000000    -2.159000000    -2.818000000
H    -1.632000000    -1.915000000    -3.285000000
C    -3.669000000    -1.483000000    -3.374000000
O    -3.659000000    -0.600000000    -4.439000000
C    -4.930000000    -1.665000000    -2.905000000
H    -5.746000000    -1.072000000    -3.310000000
C    -5.079000000    -2.581000000    -1.834000000
O    -6.321000000    -2.890000000    -1.257000000
C    -6.789000000    -2.466000000    -0.018000000
C    -6.166000000    -1.531000000     0.836000000
H    -5.374000000    -0.912000000     0.423000000
C    -7.872000000    -3.225000000     0.488000000
H    -8.285000000    -4.110000000     0.011000000
C    -8.475000000    -2.817000000     1.659000000
H    -9.441000000    -3.237000000     1.927000000
C    -7.859000000    -1.809000000     2.457000000
H    -8.372000000    -1.477000000     3.356000000
C    -6.688000000    -1.249000000     2.118000000
O    -6.276000000    -0.271000000     2.930000000
C    -4.933000000     0.131000000     3.019000000
C    -4.751000000     1.464000000     2.829000000
H    -5.571000000     2.151000000     2.639000000
C    -3.482000000     1.939000000     2.950000000
O    -3.277000000     3.326000000     2.694000000
C    -2.573000000     4.160000000     3.542000000
C    -1.332000000     4.679000000     3.181000000
H    -0.917000000     4.538000000     2.186000000
C    -3.074000000     4.373000000     4.838000000
H    -4.000000000     3.863000000     5.090000000
C    -2.415000000     5.159000000     5.755000000
H    -2.804000000     5.375000000     6.747000000
C    -1.198000000     5.767000000     5.374000000
H    -0.716000000     6.498000000     6.018000000
C    -0.632000000     5.495000000     4.142000000
O     0.594000000     6.082000000     3.783000000
C     1.401000000     5.505000000     2.839000000
C     1.449000000     6.042000000     1.534000000
H     0.989000000     7.005000000     1.330000000
C     2.077000000     5.373000000     0.564000000
O     2.001000000     5.918000000    -0.721000000
C     2.834000000     5.558000000    -1.775000000
C     2.378000000     4.950000000    -2.932000000
H     1.336000000     4.705000000    -3.119000000
C     4.115000000     6.172000000    -1.745000000
H     4.478000000     6.733000000    -0.887000000
C     4.907000000     5.929000000    -2.843000000
H     5.916000000     6.334000000    -2.825000000
C     4.530000000     5.114000000    -3.908000000
H     5.282000000     5.002000000    -4.685000000
C     3.250000000     4.546000000    -3.909000000
O     2.910000000     3.882000000    -5.047000000
C     2.483000000     2.596000000    -5.033000000
C     1.653000000     2.094000000    -6.021000000
H     1.272000000     2.752000000    -6.799000000
C     1.240000000     0.751000000    -6.080000000
O     0.320000000     0.391000000    -7.035000000
C    -0.855000000    -0.222000000    -6.800000000
C    -1.295000000    -1.088000000    -7.766000000
H    -0.652000000    -1.225000000    -8.632000000
C    -2.430000000    -1.877000000    -7.628000000
H    -2.665000000    -2.527000000    -8.467000000
C    -3.164000000    -1.734000000    -6.493000000
H    -4.069000000    -2.321000000    -6.368000000
C    -2.851000000    -0.742000000    -5.548000000
C    -1.681000000     0.021000000    -5.729000000
H    -1.370000000     0.704000000    -4.942000000
C    -0.546000000     2.053000000    -0.909000000
H     0.016000000     2.950000000    -1.154000000
C     0.145000000     1.021000000    -0.268000000
H     1.217000000     1.027000000    -0.089000000
C    -0.557000000    -0.135000000     0.110000000
H     0.008000000    -0.855000000     0.755000000
C    -1.932000000    -0.180000000    -0.079000000
H    -2.410000000    -1.111000000     0.216000000
C    -2.608000000     0.851000000    -0.743000000
H    -3.685000000     0.796000000    -0.883000000
C    -1.943000000     1.988000000    -1.149000000
C    -2.570000000     3.035000000    -1.948000000
O    -3.761000000     3.350000000    -1.790000000
O    -1.887000000     3.676000000    -2.773000000
O    -3.821000000     5.672000000    -0.912000000
H    -4.554000000     5.543000000    -0.310000000
H    -3.688000000     4.814000000    -1.315000000
O    -4.528000000     2.491000000    -4.720000000
H    -5.203000000     1.813000000    -4.754000000
H    -4.609000000     2.864000000    -3.842000000
O    -4.903000000     5.797000000    -3.577000000
H    -4.514000000     5.906000000    -4.444000000
H    -4.154000000     5.734000000    -2.984000000
O    -6.956000000     2.827000000     0.310000000
H    -7.776000000     3.164000000    -0.049000000
H    -6.440000000     3.609000000     0.507000000
O    -1.893000000     7.858000000     0.442000000
H    -1.998000000     7.049000000    -0.059000000
H    -2.693000000     8.354000000     0.267000000
O    -5.739000000     5.082000000     1.366000000
H    -6.115000000     5.595000000     2.081000000
H    -4.969000000     4.663000000     1.752000000
O    -1.149000000     6.369000000    -3.037000000
H    -1.260000000     5.595000000    -2.485000000
H    -1.093000000     6.023000000    -3.927000000
O     1.097000000     8.218000000    -2.954000000
H     0.476000000     7.493000000    -2.890000000
H     1.351000000     8.234000000    -3.877000000
O    -3.389000000     6.235000000    -5.743000000
H    -3.139000000     6.938000000    -6.342000000
H    -2.698000000     5.580000000    -5.841000000
O    -1.386000000     4.515000000    -5.281000000
H    -1.353000000     4.073000000    -4.433000000
H    -1.777000000     3.871000000    -5.872000000
O    -8.412000000     5.543000000    -2.026000000
H    -9.000000000     4.837000000    -1.758000000
H    -7.699000000     5.099000000    -2.485000000
O    -6.396000000     0.410000000    -5.201000000
H    -5.589000000    -0.056000000    -5.419000000
H    -7.095000000    -0.207000000    -5.416000000
O    -5.908000000     4.895000000    -6.627000000
H    -5.330000000     4.429000000    -7.230000000
H    -5.395000000     4.983000000    -5.823000000
O    -2.700000000     2.861000000    -6.795000000
H    -3.286000000     2.752000000    -6.046000000
H    -3.272000000     2.784000000    -7.559000000
O    -5.727000000     8.510000000    -2.993000000
H    -4.794000000     8.636000000    -2.818000000
H    -5.787000000     7.622000000    -3.344000000
O    -3.063000000     8.798000000    -2.889000000
H    -2.555000000     7.990000000    -2.814000000
H    -2.416000000     9.497000000    -2.795000000
O    -6.067000000     2.008000000    -2.036000000
H    -6.447000000     2.101000000    -1.162000000
H    -5.145000000     2.236000000    -1.922000000
O    -7.022000000     3.983000000    -3.738000000
H    -6.844000000     3.088000000    -3.449000000
H    -6.240000000     4.475000000    -3.490000000
O    -8.659000000     1.554000000    -3.051000000
H    -7.828000000     1.469000000    -2.584000000
H    -8.485000000     1.190000000    -3.919000000
