215
-1423.17948
C    -1.529000000     0.940000000     5.011000000
H    -0.502000000     1.292000000     5.070000000
C    -1.734000000    -0.392000000     4.665000000
C    -3.041000000    -0.803000000     4.616000000
H    -3.253000000    -1.849000000     4.409000000
C    -0.613000000    -1.304000000     4.250000000
O     0.626000000    -0.927000000     4.744000000
H    -0.535000000    -1.200000000     3.158000000
O    -0.943000000    -2.727000000     4.476000000
C    -0.716000000    -3.461000000     3.356000000
C    -1.747000000    -3.620000000     2.426000000
H    -2.745000000    -3.189000000     2.429000000
C    -1.399000000    -4.196000000     1.183000000
O    -2.367000000    -4.200000000     0.130000000
C    -0.112000000    -4.649000000     0.879000000
C     0.285000000    -5.427000000    -0.405000000
H     1.091000000    -6.111000000    -0.130000000
C     0.627000000    -4.474000000    -1.538000000
C     1.953000000    -4.178000000    -1.775000000
H     2.823000000    -4.679000000    -1.358000000
H    -0.609000000    -5.983000000    -0.696000000
C     0.878000000    -4.398000000     1.798000000
H     1.897000000    -4.627000000     1.496000000
C     0.594000000    -3.841000000     3.045000000
C     1.778000000    -3.594000000     3.953000000
H     2.503000000    -4.406000000     3.872000000
H     1.505000000    -3.641000000     5.009000000
C     2.315000000    -2.165000000     3.657000000
C     3.472000000    -2.023000000     2.840000000
H     3.793000000    -3.006000000     2.505000000
C     1.735000000    -0.959000000     3.997000000
C     2.390000000     0.264000000     3.705000000
H     1.962000000     1.225000000     3.980000000
C     3.547000000     0.359000000     3.008000000
O     3.901000000     1.591000000     2.567000000
C     3.457000000     2.032000000     1.296000000
C     3.089000000     3.440000000     1.288000000
C     3.643000000     4.357000000     0.362000000
H     4.395000000     4.106000000    -0.382000000
C     1.984000000     3.859000000     1.999000000
H     1.660000000     3.093000000     2.699000000
O     4.498000000     1.762000000     0.267000000
H     2.526000000     1.534000000     0.986000000
C     4.054000000    -0.793000000     2.455000000
C     5.171000000    -0.815000000     1.462000000
H     5.693000000    -1.764000000     1.600000000
H     5.849000000     0.024000000     1.630000000
C     4.657000000    -0.655000000     0.043000000
C     4.552000000    -1.784000000    -0.769000000
H     4.718000000    -2.749000000    -0.297000000
C     4.445000000     0.625000000    -0.435000000
C     4.144000000     0.754000000    -1.855000000
H     4.102000000     1.799000000    -2.150000000
C     4.065000000    -0.343000000    -2.636000000
O     3.494000000    -0.217000000    -3.885000000
C     2.036000000    -0.258000000    -3.861000000
C     1.312000000     0.888000000    -4.526000000
C     1.805000000     2.195000000    -4.382000000
H     2.663000000     2.274000000    -3.719000000
C     0.014000000     0.698000000    -5.161000000
H    -0.339000000    -0.327000000    -5.254000000
O     1.571000000    -1.534000000    -4.306000000
H     1.784000000    -0.242000000    -2.790000000
C     4.235000000    -1.625000000    -2.129000000
C     3.836000000    -2.818000000    -2.939000000
H     4.443000000    -3.662000000    -2.605000000
H     4.060000000    -2.652000000    -3.995000000
C     2.342000000    -3.180000000    -2.699000000
C     1.333000000    -2.584000000    -3.422000000
C     0.040000000    -2.836000000    -3.174000000
H    -0.653000000    -2.285000000    -3.805000000
C    -0.384000000    -3.831000000    -2.309000000
O    -1.714000000    -4.031000000    -2.159000000
C    -2.269000000    -3.330000000    -1.035000000
H    -1.659000000    -2.452000000    -0.776000000
C    -3.591000000    -2.724000000    -1.388000000
C    -4.575000000    -2.448000000    -0.429000000
H    -4.356000000    -2.831000000     0.564000000
C    -3.780000000    -2.208000000    -2.643000000
H    -2.984000000    -2.266000000    -3.382000000
C    -5.022000000    -1.657000000    -3.065000000
O    -5.163000000    -0.975000000    -4.255000000
C    -5.982000000    -1.322000000    -2.085000000
H    -6.899000000    -0.776000000    -2.294000000
C    -5.721000000    -1.699000000    -0.742000000
O    -6.701000000    -1.467000000     0.235000000
C    -6.532000000    -1.823000000     1.577000000
C    -5.994000000    -0.969000000     2.457000000
H    -5.586000000    -0.021000000     2.115000000
C    -6.957000000    -3.106000000     2.007000000
H    -7.238000000    -3.816000000     1.233000000
C    -6.731000000    -3.473000000     3.321000000
H    -7.155000000    -4.417000000     3.652000000
C    -6.215000000    -2.565000000     4.228000000
H    -6.013000000    -2.865000000     5.254000000
C    -5.822000000    -1.304000000     3.775000000
O    -5.374000000    -0.415000000     4.737000000
C    -4.106000000     0.037000000     4.871000000
C    -3.925000000     1.325000000     5.320000000
H    -4.763000000     2.005000000     5.446000000
C    -2.644000000     1.800000000     5.334000000
O    -2.469000000     3.148000000     5.665000000
C    -1.282000000     3.742000000     5.440000000
C    -0.979000000     4.363000000     4.260000000
H    -1.800000000     4.420000000     3.550000000
C    -0.215000000     3.675000000     6.406000000
H    -0.416000000     3.300000000     7.407000000
C     0.988000000     4.145000000     6.086000000
H     1.833000000     4.067000000     6.765000000
C     1.247000000     4.878000000     4.919000000
H     2.192000000     5.341000000     4.644000000
C     0.220000000     4.936000000     4.003000000
O     0.363000000     5.501000000     2.716000000
C     1.445000000     5.189000000     1.926000000
C     1.975000000     6.047000000     0.940000000
H     1.542000000     7.025000000     0.747000000
C     3.098000000     5.620000000     0.217000000
O     3.493000000     6.494000000    -0.766000000
C     3.598000000     6.079000000    -2.130000000
C     2.469000000     5.610000000    -2.713000000
H     1.533000000     5.903000000    -2.245000000
C     4.901000000     5.809000000    -2.603000000
H     5.771000000     6.062000000    -2.002000000
C     4.964000000     5.081000000    -3.743000000
H     6.015000000     4.955000000    -3.989000000
C     3.813000000     4.633000000    -4.466000000
H     3.795000000     3.973000000    -5.329000000
C     2.580000000     4.857000000    -3.919000000
O     1.400000000     4.499000000    -4.614000000
C     1.053000000     3.244000000    -4.888000000
C    -0.173000000     3.047000000    -5.507000000
H    -0.740000000     3.906000000    -5.856000000
C    -0.610000000     1.775000000    -5.707000000
O    -1.805000000     1.623000000    -6.341000000
C    -2.529000000     0.422000000    -6.262000000
C    -2.259000000    -0.615000000    -7.166000000
H    -1.443000000    -0.441000000    -7.862000000
C    -3.052000000    -1.726000000    -7.146000000
H    -3.018000000    -2.611000000    -7.776000000
C    -4.088000000    -1.871000000    -6.239000000
H    -4.690000000    -2.775000000    -6.203000000
C    -4.332000000    -0.848000000    -5.291000000
C    -3.464000000     0.239000000    -5.219000000
H    -3.647000000     0.986000000    -4.451000000
C    -1.300000000     1.466000000    -1.629000000
H    -1.291000000     1.942000000    -2.607000000
C    -0.150000000     1.100000000    -0.994000000
H     0.851000000     1.184000000    -1.410000000
C    -0.196000000     0.542000000     0.293000000
H     0.725000000     0.128000000     0.825000000
C    -1.438000000     0.297000000     0.855000000
H    -1.492000000    -0.180000000     1.830000000
C    -2.575000000     0.684000000     0.231000000
H    -3.563000000     0.496000000     0.644000000
C    -2.539000000     1.363000000    -0.976000000
C    -3.728000000     2.060000000    -1.642000000
O    -4.795000000     2.081000000    -1.120000000
O    -3.573000000     2.682000000    -2.660000000
O    -8.594000000     2.644000000     0.481000000
H    -8.571000000     2.006000000     1.194000000
H    -9.487000000     2.989000000     0.497000000
O    -3.362000000     6.103000000    -3.749000000
H    -4.153000000     5.623000000    -3.506000000
H    -2.673000000     5.721000000    -3.205000000
O    -6.087000000     6.267000000     2.762000000
H    -5.925000000     6.988000000     2.153000000
H    -5.914000000     5.477000000     2.251000000
O    -2.774000000     6.440000000    -6.600000000
H    -3.091000000     6.154000000    -5.744000000
H    -2.207000000     5.728000000    -6.896000000
O    -1.917000000     3.473000000     1.088000000
H    -2.752000000     3.028000000     1.234000000
H    -1.293000000     2.765000000     0.927000000
O    -1.684000000     4.696000000    -2.012000000
H    -0.880000000     4.182000000    -2.078000000
H    -2.382000000     4.080000000    -2.234000000
O    -7.913000000     4.944000000    -1.181000000
H    -8.190000000     4.110000000    -0.802000000
H    -8.422000000     5.021000000    -1.989000000
O    -8.857000000     0.423000000     2.210000000
H    -7.989000000     0.032000000     2.309000000
H    -9.460000000    -0.320000000     2.242000000
O    -1.885000000     6.132000000     0.207000000
H    -1.658000000     5.411000000     0.795000000
H    -1.877000000     5.741000000    -0.666000000
O    -9.201000000     0.348000000    -1.018000000
H    -9.528000000    -0.185000000    -0.293000000
H    -8.895000000     1.155000000    -0.603000000
O    -8.385000000     2.449000000    -5.292000000
H    -7.811000000     2.193000000    -4.570000000
H    -8.410000000     1.681000000    -5.863000000
O    -3.358000000     8.143000000    -1.398000000
H    -2.638000000     7.754000000    -0.901000000
H    -3.450000000     7.579000000    -2.166000000
O    -4.538000000     3.567000000    -5.190000000
H    -4.401000000     3.225000000    -4.306000000
H    -3.971000000     3.030000000    -5.745000000
O    -8.382000000    -2.123000000    -5.179000000
H    -8.841000000    -2.101000000    -4.339000000
H    -7.633000000    -1.540000000    -5.058000000
O    -5.881000000     7.524000000    -4.266000000
H    -6.364000000     6.722000000    -4.066000000
H    -5.157000000     7.236000000    -4.821000000
O    -7.068000000     5.054000000    -5.234000000
H    -6.362000000     4.443000000    -5.447000000
H    -7.811000000     4.493000000    -5.012000000
O    -5.112000000     3.529000000     1.142000000
H    -5.076000000     3.071000000     0.302000000
H    -5.863000000     3.144000000     1.593000000
O    -7.338000000     1.648000000    -2.808000000
H    -8.012000000     1.291000000    -2.229000000
H    -6.586000000     1.800000000    -2.235000000
O    -5.422000000     5.203000000    -2.142000000
H    -5.115000000     4.302000000    -2.038000000
H    -6.187000000     5.262000000    -1.571000000
