215
-1464.44789
C    -1.971000000     0.930000000     4.125000000
H    -0.951000000     1.289000000     4.236000000
C    -2.303000000    -0.461000000     3.842000000
C    -3.645000000    -0.767000000     3.435000000
H    -3.967000000    -1.760000000     3.131000000
C    -1.251000000    -1.537000000     3.657000000
O    -0.210000000    -1.499000000     4.703000000
H    -0.887000000    -1.413000000     2.626000000
O    -1.802000000    -2.881000000     3.629000000
C    -1.383000000    -3.687000000     2.590000000
C    -2.215000000    -3.962000000     1.499000000
H    -3.276000000    -3.733000000     1.548000000
C    -1.702000000    -4.428000000     0.300000000
O    -2.524000000    -4.326000000    -0.809000000
C    -0.446000000    -4.953000000     0.252000000
C     0.201000000    -5.678000000    -0.973000000
H     0.997000000    -6.372000000    -0.694000000
C     0.777000000    -4.692000000    -1.961000000
C     2.077000000    -4.356000000    -1.870000000
H     2.746000000    -4.948000000    -1.252000000
H    -0.572000000    -6.322000000    -1.398000000
C     0.383000000    -4.816000000     1.400000000
H     1.364000000    -5.283000000     1.437000000
C    -0.065000000    -4.214000000     2.568000000
C     0.816000000    -4.002000000     3.797000000
H     1.523000000    -4.834000000     3.782000000
H     0.259000000    -4.069000000     4.734000000
C     1.629000000    -2.753000000     3.790000000
C     2.901000000    -2.696000000     3.223000000
H     3.279000000    -3.633000000     2.822000000
C     1.017000000    -1.587000000     4.242000000
C     1.797000000    -0.426000000     4.316000000
H     1.467000000     0.557000000     4.640000000
C     3.009000000    -0.372000000     3.683000000
O     3.472000000     0.932000000     3.520000000
C     3.178000000     1.542000000     2.299000000
C     2.871000000     3.036000000     2.419000000
C     2.907000000     3.861000000     1.293000000
H     3.314000000     3.511000000     0.347000000
C     2.330000000     3.547000000     3.590000000
H     2.097000000     2.924000000     4.450000000
O     4.357000000     1.280000000     1.484000000
H     2.264000000     1.169000000     1.814000000
C     3.582000000    -1.538000000     3.101000000
C     4.816000000    -1.521000000     2.402000000
H     5.320000000    -2.490000000     2.372000000
H     5.394000000    -0.820000000     3.008000000
C     4.628000000    -1.076000000     0.916000000
C     4.703000000    -2.063000000    -0.098000000
H     4.993000000    -3.079000000     0.158000000
C     4.315000000     0.236000000     0.619000000
C     4.087000000     0.520000000    -0.748000000
H     3.777000000     1.514000000    -1.059000000
C     4.203000000    -0.417000000    -1.737000000
O     3.817000000    -0.107000000    -3.052000000
C     2.462000000    -0.089000000    -3.373000000
C     2.046000000     1.123000000    -4.217000000
C     2.607000000     2.366000000    -3.876000000
H     3.446000000     2.492000000    -3.197000000
C     1.057000000     1.009000000    -5.195000000
H     0.490000000     0.104000000    -5.398000000
O     2.122000000    -1.307000000    -4.092000000
H     1.879000000    -0.036000000    -2.442000000
C     4.336000000    -1.757000000    -1.404000000
C     4.098000000    -2.821000000    -2.436000000
H     4.824000000    -3.633000000    -2.353000000
H     4.358000000    -2.416000000    -3.416000000
C     2.627000000    -3.252000000    -2.584000000
C     1.754000000    -2.432000000    -3.352000000
C     0.450000000    -2.834000000    -3.478000000
H    -0.228000000    -2.203000000    -4.047000000
C    -0.095000000    -3.899000000    -2.780000000
O    -1.475000000    -4.047000000    -2.856000000
C    -2.160000000    -3.400000000    -1.759000000
H    -1.499000000    -2.718000000    -1.203000000
C    -3.267000000    -2.515000000    -2.279000000
C    -4.419000000    -2.354000000    -1.539000000
H    -4.489000000    -2.734000000    -0.523000000
C    -3.176000000    -1.776000000    -3.510000000
H    -2.212000000    -1.749000000    -4.011000000
C    -4.301000000    -1.129000000    -3.989000000
O    -4.159000000    -0.238000000    -5.079000000
C    -5.456000000    -1.100000000    -3.256000000
H    -6.321000000    -0.479000000    -3.475000000
C    -5.509000000    -1.640000000    -2.024000000
O    -6.601000000    -1.432000000    -1.211000000
C    -6.673000000    -1.674000000     0.112000000
C    -6.320000000    -0.638000000     1.014000000
H    -5.863000000     0.262000000     0.610000000
C    -7.124000000    -2.957000000     0.580000000
H    -7.336000000    -3.738000000    -0.146000000
C    -7.178000000    -3.203000000     1.948000000
H    -7.439000000    -4.170000000     2.372000000
C    -6.783000000    -2.181000000     2.855000000
H    -6.794000000    -2.297000000     3.936000000
C    -6.370000000    -0.924000000     2.369000000
O    -5.985000000     0.044000000     3.226000000
C    -4.629000000     0.238000000     3.523000000
C    -4.316000000     1.539000000     3.938000000
H    -5.071000000     2.319000000     3.888000000
C    -2.968000000     1.891000000     4.178000000
O    -2.747000000     3.218000000     4.414000000
C    -1.681000000     3.702000000     5.232000000
C    -0.646000000     4.352000000     4.656000000
H    -0.539000000     4.503000000     3.585000000
C    -1.779000000     3.480000000     6.667000000
H    -2.616000000     2.980000000     7.147000000
C    -0.813000000     4.061000000     7.474000000
H    -0.936000000     4.016000000     8.553000000
C     0.247000000     4.791000000     6.906000000
H     1.060000000     5.219000000     7.488000000
C     0.397000000     4.846000000     5.482000000
O     1.424000000     5.461000000     4.864000000
C     1.956000000     4.908000000     3.701000000
C     2.132000000     5.740000000     2.619000000
H     1.858000000     6.791000000     2.648000000
C     2.571000000     5.224000000     1.383000000
O     2.682000000     6.111000000     0.336000000
C     3.324000000     5.750000000    -0.806000000
C     2.582000000     5.308000000    -1.938000000
H     1.500000000     5.218000000    -1.989000000
C     4.694000000     6.027000000    -0.883000000
H     5.196000000     6.349000000     0.026000000
C     5.373000000     5.803000000    -2.072000000
H     6.444000000     5.978000000    -2.117000000
C     4.662000000     5.286000000    -3.128000000
H     5.212000000     5.083000000    -4.043000000
C     3.300000000     5.066000000    -3.108000000
O     2.596000000     4.679000000    -4.237000000
C     2.085000000     3.497000000    -4.441000000
C     1.169000000     3.394000000    -5.441000000
H     0.843000000     4.307000000    -5.932000000
C     0.595000000     2.182000000    -5.820000000
O    -0.468000000     2.235000000    -6.769000000
C    -1.319000000     1.142000000    -6.972000000
C    -1.181000000     0.204000000    -8.006000000
H    -0.385000000     0.428000000    -8.711000000
C    -2.032000000    -0.861000000    -8.111000000
H    -1.970000000    -1.402000000    -9.052000000
C    -3.068000000    -0.957000000    -7.184000000
H    -3.808000000    -1.744000000    -7.306000000
C    -3.151000000    -0.067000000    -6.055000000
C    -2.300000000     0.995000000    -5.967000000
H    -2.333000000     1.786000000    -5.222000000
C    -0.611000000     1.985000000    -0.284000000
H    -0.612000000     3.033000000    -0.574000000
C     0.567000000     1.266000000    -0.112000000
H     1.461000000     1.872000000    -0.237000000
C     0.499000000    -0.106000000     0.240000000
H     1.364000000    -0.728000000     0.364000000
C    -0.721000000    -0.695000000     0.283000000
H    -0.786000000    -1.746000000     0.554000000
C    -1.860000000    -0.066000000     0.043000000
H    -2.802000000    -0.603000000    -0.035000000
C    -1.858000000     1.280000000    -0.306000000
C    -3.100000000     2.082000000    -0.624000000
O    -4.124000000     1.534000000    -0.903000000
O    -3.022000000     3.287000000    -0.732000000
O    -7.824000000     4.200000000     2.027000000
H    -7.716000000     3.914000000     1.120000000
H    -8.586000000     4.779000000     2.006000000
O    -8.240000000     1.204000000    -1.028000000
H    -8.284000000     1.645000000    -1.876000000
H    -7.305000000     1.064000000    -0.879000000
O    -4.629000000     3.957000000    -5.803000000
H    -4.197000000     4.776000000    -6.046000000
H    -5.199000000     4.196000000    -5.072000000
O    -0.199000000     6.730000000    -2.235000000
H    -0.910000000     7.087000000    -1.704000000
H     0.501000000     7.380000000    -2.167000000
O    -8.267000000     1.720000000    -4.004000000
H    -7.312000000     1.683000000    -3.961000000
H    -8.471000000     2.656000000    -4.006000000
O    -2.701000000     5.409000000     0.814000000
H    -3.534000000     5.464000000     1.283000000
H    -2.737000000     4.567000000     0.360000000
O    -0.490000000     7.203000000     1.843000000
H    -1.085000000     6.507000000     1.563000000
H    -0.436000000     7.105000000     2.794000000
O    -4.913000000     7.968000000     1.142000000
H    -4.077000000     7.520000000     1.009000000
H    -4.670000000     8.864000000     1.375000000
O    -6.697000000     6.626000000    -0.458000000
H    -6.173000000     6.873000000     0.304000000
H    -6.111000000     6.084000000    -0.987000000
O    -6.147000000     2.994000000    -0.161000000
H    -5.366000000     2.472000000    -0.346000000
H    -6.179000000     3.635000000    -0.871000000
O    -5.833000000     1.735000000    -6.941000000
H    -5.452000000     2.581000000    -6.707000000
H    -5.902000000     1.266000000    -6.109000000
O    -1.855000000     4.595000000    -5.753000000
H    -2.636000000     4.132000000    -5.450000000
H    -1.223000000     4.489000000    -5.042000000
O    -2.330000000     8.106000000    -1.465000000
H    -1.974000000     8.920000000    -1.821000000
H    -3.138000000     8.370000000    -1.025000000
O    -2.100000000     4.551000000    -2.776000000
H    -2.392000000     3.935000000    -2.105000000
H    -1.570000000     5.191000000    -2.300000000
O    -7.574000000     2.211000000     3.766000000
H    -7.370000000     2.859000000     3.092000000
H    -6.959000000     1.496000000     3.605000000
O    -6.098000000     5.121000000    -3.747000000
H    -5.957000000     5.997000000    -4.108000000
H    -5.519000000     5.079000000    -2.987000000
O    -5.098000000     5.059000000     1.973000000
H    -5.583000000     4.312000000     1.621000000
H    -5.342000000     5.090000000     2.898000000
O    -5.384000000     2.021000000    -3.239000000
H    -4.654000000     2.128000000    -3.849000000
H    -4.967000000     1.833000000    -2.398000000
O    -4.535000000     5.318000000    -1.592000000
H    -4.126000000     4.534000000    -1.227000000
H    -3.840000000     5.735000000    -2.102000000
