215
-1463.26369
C    -2.285000000    -0.757000000    -4.399000000
H    -1.831000000    -1.718000000    -4.170000000
C    -1.431000000     0.359000000    -4.633000000
C    -2.041000000     1.566000000    -4.951000000
H    -1.411000000     2.424000000    -5.169000000
C     0.088000000     0.241000000    -4.261000000
O     0.632000000    -1.027000000    -4.818000000
H     0.055000000     0.069000000    -3.175000000
O     0.963000000     1.430000000    -4.648000000
C     1.943000000     1.979000000    -3.824000000
C     1.562000000     3.069000000    -3.053000000
H     0.609000000     3.513000000    -3.330000000
C     2.312000000     3.473000000    -1.981000000
O     1.777000000     4.417000000    -1.137000000
C     3.506000000     2.850000000    -1.692000000
C     4.556000000     3.391000000    -0.682000000
H     5.537000000     3.030000000    -0.996000000
C     4.208000000     2.763000000     0.710000000
C     4.762000000     1.537000000     1.138000000
H     5.400000000     1.050000000     0.406000000
H     4.663000000     4.465000000    -0.516000000
C     3.933000000     1.792000000    -2.517000000
H     4.859000000     1.257000000    -2.323000000
C     3.107000000     1.336000000    -3.511000000
C     3.481000000     0.062000000    -4.269000000
H     4.565000000    -0.030000000    -4.362000000
H     3.105000000     0.156000000    -5.289000000
C     2.860000000    -1.205000000    -3.628000000
C     3.578000000    -1.890000000    -2.679000000
H     4.601000000    -1.592000000    -2.464000000
C     1.566000000    -1.681000000    -3.954000000
C     1.087000000    -2.843000000    -3.415000000
H     0.072000000    -3.214000000    -3.533000000
C     1.823000000    -3.520000000    -2.448000000
O     1.234000000    -4.463000000    -1.651000000
C     0.708000000    -4.057000000    -0.358000000
C    -0.716000000    -4.583000000    -0.209000000
C    -1.246000000    -4.887000000     1.088000000
H    -0.606000000    -4.671000000     1.940000000
C    -1.480000000    -4.782000000    -1.360000000
H    -1.121000000    -4.603000000    -2.370000000
O     1.604000000    -4.525000000     0.661000000
H     0.803000000    -2.968000000    -0.242000000
C     3.053000000    -3.021000000    -2.032000000
C     3.874000000    -3.734000000    -0.958000000
H     4.917000000    -3.508000000    -1.192000000
H     3.741000000    -4.812000000    -1.076000000
C     3.599000000    -3.194000000     0.400000000
C     4.376000000    -2.202000000     0.939000000
H     5.213000000    -1.831000000     0.354000000
C     2.511000000    -3.628000000     1.143000000
C     2.188000000    -3.058000000     2.323000000
H     1.310000000    -3.458000000     2.824000000
C     3.011000000    -2.106000000     2.936000000
O     2.681000000    -1.499000000     4.096000000
C     1.854000000    -0.273000000     3.860000000
C     0.600000000    -0.245000000     4.769000000
C    -0.135000000    -1.385000000     4.922000000
H     0.424000000    -2.298000000     4.736000000
C    -0.014000000     0.984000000     5.057000000
H     0.470000000     1.917000000     4.781000000
O     2.740000000     0.789000000     4.141000000
H     1.579000000    -0.345000000     2.797000000
C     4.092000000    -1.601000000     2.194000000
C     4.950000000    -0.445000000     2.710000000
H     5.968000000    -0.649000000     2.371000000
H     4.926000000    -0.513000000     3.799000000
C     4.420000000     0.916000000     2.366000000
C     3.306000000     1.469000000     3.092000000
C     2.699000000     2.658000000     2.581000000
H     1.789000000     3.003000000     3.066000000
C     3.152000000     3.295000000     1.471000000
O     2.457000000     4.372000000     1.076000000
C     1.394000000     4.004000000     0.181000000
H     1.137000000     2.937000000     0.117000000
C     0.061000000     4.582000000     0.513000000
C    -0.871000000     4.699000000    -0.460000000
H    -0.647000000     4.153000000    -1.373000000
C    -0.163000000     5.156000000     1.765000000
H     0.577000000     5.125000000     2.561000000
C    -1.386000000     5.798000000     1.982000000
O    -1.747000000     6.294000000     3.220000000
C    -2.350000000     5.887000000     1.002000000
H    -3.329000000     6.322000000     1.184000000
C    -2.151000000     5.249000000    -0.224000000
O    -3.142000000     5.217000000    -1.173000000
C    -2.943000000     5.121000000    -2.559000000
C    -3.652000000     4.217000000    -3.308000000
H    -4.404000000     3.628000000    -2.790000000
C    -2.036000000     6.016000000    -3.107000000
H    -1.543000000     6.719000000    -2.441000000
C    -1.756000000     5.947000000    -4.469000000
H    -1.029000000     6.637000000    -4.889000000
C    -2.453000000     5.021000000    -5.270000000
H    -2.312000000     4.883000000    -6.339000000
C    -3.356000000     4.136000000    -4.631000000
O    -3.893000000     3.096000000    -5.327000000
C    -3.431000000     1.763000000    -5.093000000
C    -4.189000000     0.625000000    -4.902000000
H    -5.273000000     0.610000000    -4.988000000
C    -3.645000000    -0.615000000    -4.567000000
O    -4.488000000    -1.640000000    -4.344000000
C    -4.158000000    -2.972000000    -4.490000000
C    -3.896000000    -3.728000000    -3.324000000
H    -4.147000000    -3.354000000    -2.335000000
C    -3.852000000    -3.490000000    -5.750000000
H    -4.062000000    -2.916000000    -6.648000000
C    -3.384000000    -4.783000000    -5.901000000
H    -3.329000000    -5.213000000    -6.898000000
C    -3.260000000    -5.601000000    -4.731000000
H    -3.039000000    -6.663000000    -4.812000000
C    -3.449000000    -5.070000000    -3.496000000
O    -3.326000000    -5.846000000    -2.359000000
C    -2.670000000    -5.469000000    -1.263000000
C    -3.141000000    -5.829000000     0.007000000
H    -3.982000000    -6.516000000     0.055000000
C    -2.503000000    -5.461000000     1.117000000
O    -3.086000000    -5.770000000     2.366000000
C    -2.455000000    -5.455000000     3.573000000
C    -2.502000000    -4.157000000     4.058000000
H    -2.940000000    -3.315000000     3.528000000
C    -1.920000000    -6.434000000     4.365000000
H    -2.078000000    -7.489000000     4.156000000
C    -1.327000000    -6.076000000     5.612000000
H    -0.745000000    -6.804000000     6.171000000
C    -1.378000000    -4.798000000     6.059000000
H    -0.908000000    -4.604000000     7.020000000
C    -1.952000000    -3.807000000     5.300000000
O    -2.078000000    -2.549000000     5.844000000
C    -1.408000000    -1.431000000     5.531000000
C    -1.981000000    -0.217000000     5.867000000
H    -2.973000000    -0.206000000     6.311000000
C    -1.291000000     0.957000000     5.555000000
O    -1.956000000     2.166000000     5.709000000
C    -1.451000000     3.417000000     5.512000000
C    -0.585000000     3.930000000     6.422000000
H    -0.334000000     3.286000000     7.261000000
C    -0.126000000     5.259000000     6.371000000
H     0.475000000     5.735000000     7.142000000
C    -0.522000000     6.073000000     5.303000000
H    -0.244000000     7.118000000     5.198000000
C    -1.421000000     5.555000000     4.335000000
C    -1.974000000     4.292000000     4.564000000
H    -2.730000000     3.900000000     3.889000000
C    -1.865000000    -1.314000000     0.855000000
H    -2.367000000    -2.022000000     1.511000000
C    -0.543000000    -0.918000000     0.948000000
H     0.068000000    -1.431000000     1.686000000
C    -0.018000000    -0.084000000    -0.078000000
H     1.049000000     0.233000000     0.054000000
C    -0.845000000     0.392000000    -1.075000000
H    -0.475000000     1.117000000    -1.796000000
C    -2.219000000     0.083000000    -1.089000000
H    -2.844000000     0.517000000    -1.865000000
C    -2.712000000    -0.834000000    -0.151000000
C    -4.124000000    -1.281000000    -0.273000000
O    -4.876000000    -0.714000000    -1.115000000
O    -4.606000000    -2.041000000     0.528000000
O    -8.259000000    -3.794000000     2.060000000
H    -7.521000000    -3.374000000     2.503000000
H    -8.717000000    -3.075000000     1.624000000
O    -6.112000000    -3.871000000    -0.428000000
H    -6.540000000    -3.985000000     0.420000000
H    -5.494000000    -3.153000000    -0.290000000
O    -7.235000000     3.734000000    -2.882000000
H    -7.370000000     4.048000000    -1.988000000
H    -6.806000000     2.886000000    -2.776000000
O    -7.447000000    -5.724000000    -1.783000000
H    -6.884000000    -5.009000000    -1.485000000
H    -7.872000000    -6.042000000    -0.986000000
O    -5.613000000     1.852000000    -1.545000000
H    -5.326000000     0.939000000    -1.523000000
H    -5.226000000     2.243000000    -0.761000000
O    -6.808000000    -0.172000000     4.459000000
H    -6.609000000    -1.009000000     4.879000000
H    -7.661000000    -0.307000000     4.048000000
O    -8.344000000    -2.223000000    -4.692000000
H    -7.702000000    -2.073000000    -3.999000000
H    -9.020000000    -2.761000000    -4.281000000
O    -6.267000000    -0.069000000     1.539000000
H    -7.165000000    -0.248000000     1.259000000
H    -5.726000000    -0.343000000     0.798000000
O    -6.942000000     4.235000000     0.087000000
H    -6.429000000     3.517000000     0.457000000
H    -7.557000000     4.472000000     0.782000000
O    -5.281000000    -2.071000000     5.530000000
H    -4.658000000    -2.797000000     5.547000000
H    -5.461000000    -1.888000000     6.452000000
O    -5.635000000    -6.099000000     2.502000000
H    -4.762000000    -6.144000000     2.112000000
H    -5.826000000    -5.162000000     2.551000000
O    -8.604000000     0.171000000    -1.387000000
H    -9.075000000    -0.374000000    -0.758000000
H    -7.831000000    -0.344000000    -1.619000000
O    -5.010000000     2.050000000     4.800000000
H    -4.065000000     1.924000000     4.716000000
H    -5.393000000     1.253000000     4.434000000
O    -4.079000000    -0.351000000     3.190000000
H    -4.129000000    -0.731000000     4.067000000
H    -4.983000000    -0.356000000     2.875000000
O    -4.983000000     2.338000000     1.205000000
H    -4.135000000     2.302000000     1.648000000
H    -5.452000000     1.566000000     1.522000000
O    -6.739000000    -2.172000000    -2.595000000
H    -5.901000000    -1.711000000    -2.605000000
H    -6.715000000    -2.696000000    -1.794000000
O    -5.555000000    -3.272000000     2.657000000
H    -5.267000000    -2.756000000     3.410000000
H    -5.169000000    -2.828000000     1.901000000
O    -9.195000000    -1.611000000     0.691000000
H    -9.459000000    -1.028000000     1.402000000
H   -10.020000000    -1.926000000     0.320000000
O    -2.625000000     1.663000000     2.163000000
H    -3.191000000     0.904000000     2.299000000
H    -1.785000000     1.291000000     1.893000000
