215
-1482.29921
C    -2.923000000     0.609000000     4.712000000
H    -2.027000000     0.753000000     5.311000000
C    -3.105000000    -0.503000000     3.906000000
C    -4.349000000    -0.601000000     3.261000000
H    -4.580000000    -1.499000000     2.694000000
C    -1.997000000    -1.511000000     3.734000000
O    -0.947000000    -1.506000000     4.762000000
H    -1.561000000    -1.218000000     2.768000000
O    -2.538000000    -2.868000000     3.523000000
C    -1.866000000    -3.610000000     2.515000000
C    -2.542000000    -3.659000000     1.276000000
H    -3.517000000    -3.187000000     1.188000000
C    -1.921000000    -4.178000000     0.140000000
O    -2.524000000    -3.996000000    -1.095000000
C    -0.662000000    -4.777000000     0.317000000
C     0.084000000    -5.460000000    -0.845000000
H     0.629000000    -6.301000000    -0.412000000
C     0.867000000    -4.525000000    -1.727000000
C     2.198000000    -4.290000000    -1.353000000
H     2.645000000    -4.971000000    -0.633000000
H    -0.671000000    -5.925000000    -1.483000000
C    -0.025000000    -4.780000000     1.577000000
H     0.991000000    -5.153000000     1.683000000
C    -0.640000000    -4.154000000     2.692000000
C     0.126000000    -3.878000000     4.006000000
H     0.833000000    -4.689000000     4.195000000
H    -0.566000000    -3.881000000     4.851000000
C     0.972000000    -2.612000000     4.008000000
C     2.276000000    -2.672000000     3.620000000
H     2.817000000    -3.585000000     3.386000000
C     0.324000000    -1.449000000     4.329000000
C     1.014000000    -0.245000000     4.465000000
H     0.511000000     0.624000000     4.881000000
C     2.337000000    -0.270000000     4.060000000
O     2.925000000     0.930000000     3.995000000
C     2.946000000     1.491000000     2.624000000
C     2.611000000     2.953000000     2.560000000
C     3.215000000     3.866000000     1.698000000
H     4.038000000     3.582000000     1.048000000
C     1.471000000     3.433000000     3.238000000
H     1.013000000     2.763000000     3.962000000
O     4.260000000     1.284000000     2.041000000
H     2.188000000     0.873000000     2.121000000
C     2.999000000    -1.430000000     3.673000000
C     4.398000000    -1.440000000     3.204000000
H     4.744000000    -2.447000000     3.447000000
H     5.107000000    -0.799000000     3.732000000
C     4.523000000    -1.126000000     1.663000000
C     4.514000000    -2.204000000     0.768000000
H     4.493000000    -3.205000000     1.189000000
C     4.480000000     0.208000000     1.216000000
C     4.625000000     0.409000000    -0.111000000
H     4.748000000     1.437000000    -0.441000000
C     4.681000000    -0.606000000    -1.086000000
O     4.374000000    -0.157000000    -2.376000000
C     3.068000000    -0.413000000    -2.966000000
C     2.651000000     0.836000000    -3.788000000
C     2.913000000     2.169000000    -3.353000000
H     3.425000000     2.336000000    -2.409000000
C     1.899000000     0.580000000    -4.967000000
H     1.749000000    -0.434000000    -5.329000000
O     3.090000000    -1.630000000    -3.709000000
H     2.298000000    -0.514000000    -2.187000000
C     4.556000000    -1.937000000    -0.649000000
C     4.456000000    -3.104000000    -1.648000000
H     4.981000000    -3.987000000    -1.279000000
H     5.015000000    -2.709000000    -2.499000000
C     2.990000000    -3.322000000    -2.038000000
C     2.458000000    -2.676000000    -3.129000000
C     1.173000000    -2.957000000    -3.517000000
H     0.647000000    -2.376000000    -4.271000000
C     0.357000000    -3.774000000    -2.726000000
O    -1.028000000    -3.728000000    -2.927000000
C    -1.837000000    -3.009000000    -1.985000000
H    -1.315000000    -2.282000000    -1.345000000
C    -2.883000000    -2.142000000    -2.672000000
C    -4.109000000    -1.946000000    -2.007000000
H    -4.336000000    -2.405000000    -1.047000000
C    -2.740000000    -1.662000000    -3.966000000
H    -1.828000000    -1.916000000    -4.499000000
C    -3.696000000    -0.897000000    -4.632000000
O    -3.509000000    -0.452000000    -5.901000000
C    -4.880000000    -0.728000000    -3.963000000
H    -5.686000000    -0.131000000    -4.381000000
C    -5.029000000    -1.167000000    -2.662000000
O    -6.314000000    -0.930000000    -2.135000000
C    -6.623000000    -1.195000000    -0.876000000
C    -6.403000000    -0.235000000     0.081000000
H    -6.044000000     0.743000000    -0.231000000
C    -7.148000000    -2.458000000    -0.563000000
H    -7.284000000    -3.189000000    -1.357000000
C    -7.330000000    -2.752000000     0.808000000
H    -7.562000000    -3.785000000     1.055000000
C    -6.951000000    -1.788000000     1.776000000
H    -7.070000000    -1.995000000     2.837000000
C    -6.668000000    -0.518000000     1.430000000
O    -6.301000000     0.435000000     2.367000000
C    -5.264000000     0.419000000     3.274000000
C    -4.959000000     1.580000000     3.990000000
H    -5.610000000     2.446000000     3.900000000
C    -3.815000000     1.621000000     4.753000000
O    -3.584000000     2.578000000     5.752000000
C    -2.422000000     3.375000000     5.819000000
C    -1.798000000     3.877000000     4.682000000
H    -2.302000000     3.696000000     3.736000000
C    -1.809000000     3.617000000     7.018000000
H    -2.274000000     3.337000000     7.960000000
C    -0.579000000     4.306000000     7.159000000
H    -0.097000000     4.414000000     8.127000000
C     0.031000000     4.929000000     6.091000000
H     0.886000000     5.593000000     6.186000000
C    -0.617000000     4.628000000     4.820000000
O    -0.134000000     5.202000000     3.670000000
C     0.974000000     4.730000000     3.065000000
C     1.625000000     5.584000000     2.187000000
H     1.218000000     6.579000000     2.024000000
C     2.784000000     5.161000000     1.569000000
O     3.505000000     6.054000000     0.810000000
C     3.834000000     5.914000000    -0.563000000
C     2.950000000     5.221000000    -1.430000000
H     1.949000000     4.953000000    -1.102000000
C     5.133000000     6.214000000    -0.994000000
H     5.904000000     6.570000000    -0.314000000
C     5.529000000     6.128000000    -2.345000000
H     6.544000000     6.375000000    -2.646000000
C     4.615000000     5.527000000    -3.213000000
H     4.907000000     5.521000000    -4.260000000
C     3.359000000     5.087000000    -2.785000000
O     2.495000000     4.553000000    -3.747000000
C     2.443000000     3.238000000    -4.154000000
C     1.712000000     2.966000000    -5.361000000
H     1.274000000     3.800000000    -5.905000000
C     1.414000000     1.670000000    -5.755000000
O     0.788000000     1.495000000    -7.010000000
C    -0.164000000     0.513000000    -7.093000000
C    -0.070000000    -0.295000000    -8.231000000
H     0.654000000    -0.128000000    -9.025000000
C    -1.135000000    -1.121000000    -8.606000000
H    -0.978000000    -1.780000000    -9.457000000
C    -2.215000000    -1.242000000    -7.711000000
H    -2.996000000    -1.955000000    -7.961000000
C    -2.302000000    -0.443000000    -6.581000000
C    -1.276000000     0.496000000    -6.233000000
H    -1.281000000     1.148000000    -5.364000000
C    -0.158000000     1.822000000    -1.216000000
H     0.191000000     2.679000000    -1.786000000
C     0.803000000     0.996000000    -0.574000000
H     1.856000000     1.267000000    -0.596000000
C     0.483000000    -0.166000000     0.060000000
H     1.285000000    -0.799000000     0.428000000
C    -0.890000000    -0.492000000     0.172000000
H    -1.114000000    -1.302000000     0.861000000
C    -1.861000000     0.334000000    -0.374000000
H    -2.910000000     0.154000000    -0.154000000
C    -1.471000000     1.490000000    -1.124000000
C    -2.529000000     2.468000000    -1.528000000
O    -3.627000000     2.354000000    -1.019000000
O    -2.314000000     3.316000000    -2.378000000
O    -6.835000000     4.520000000    -2.797000000
H    -6.330000000     4.926000000    -2.093000000
H    -6.340000000     3.733000000    -3.025000000
O    -4.483000000     3.276000000    -7.202000000
H    -4.324000000     3.087000000    -6.277000000
H    -3.994000000     4.082000000    -7.369000000
O    -2.974000000     7.007000000    -1.196000000
H    -2.853000000     7.369000000    -0.318000000
H    -3.675000000     7.536000000    -1.578000000
O     0.975000000     6.902000000    -3.924000000
H     0.437000000     6.588000000    -3.198000000
H     1.467000000     6.131000000    -4.208000000
O    -2.369000000     4.782000000     1.061000000
H    -3.250000000     4.407000000     1.065000000
H    -2.118000000     4.795000000     0.137000000
O    -1.638000000     7.449000000     1.321000000
H    -1.858000000     6.536000000     1.139000000
H    -1.800000000     7.553000000     2.259000000
O    -0.823000000     3.910000000    -8.022000000
H    -0.892000000     3.343000000    -7.254000000
H    -1.389000000     4.655000000    -7.820000000
O    -6.555000000     6.519000000     0.164000000
H    -5.970000000     5.931000000    -0.313000000
H    -7.032000000     5.946000000     0.765000000
O    -3.008000000     6.990000000    -5.414000000
H    -2.437000000     7.714000000    -5.158000000
H    -2.521000000     6.532000000    -6.100000000
O    -7.562000000     5.539000000    -5.254000000
H    -7.069000000     6.354000000    -5.349000000
H    -7.483000000     5.319000000    -4.326000000
O    -5.729000000     1.898000000    -2.627000000
H    -5.026000000     2.114000000    -2.015000000
H    -5.846000000     0.953000000    -2.535000000
O    -4.835000000     5.386000000     3.186000000
H    -5.735000000     5.265000000     2.883000000
H    -4.370000000     4.611000000     2.871000000
O    -1.377000000     3.538000000    -5.165000000
H    -2.330000000     3.554000000    -5.254000000
H    -1.209000000     3.943000000    -4.314000000
O    -8.200000000     3.138000000    -0.217000000
H    -9.074000000     2.825000000    -0.450000000
H    -7.734000000     3.188000000    -1.052000000
O    -0.778000000     5.540000000    -2.373000000
H    -1.142000000     4.656000000    -2.315000000
H    -1.411000000     6.090000000    -1.912000000
O    -7.748000000     4.383000000     2.117000000
H    -7.823000000     4.227000000     1.175000000
H    -8.604000000     4.138000000     2.468000000
O    -4.744000000     3.292000000     1.394000000
H    -4.299000000     2.865000000     0.662000000
H    -5.462000000     2.700000000     1.615000000
O    -3.996000000     3.082000000    -4.432000000
H    -4.743000000     2.679000000    -3.990000000
H    -3.377000000     3.274000000    -3.728000000
O    -4.652000000     4.900000000    -1.279000000
H    -4.192000000     4.086000000    -1.074000000
H    -3.955000000     5.525000000    -1.477000000
