215
-1446.44723
C    -3.153000000     0.698000000     3.507000000
H    -2.353000000     1.258000000     3.983000000
C    -3.077000000    -0.599000000     2.959000000
C    -4.184000000    -1.161000000     2.288000000
H    -4.166000000    -2.194000000     1.948000000
C    -1.852000000    -1.451000000     3.060000000
O    -1.294000000    -1.122000000     4.397000000
H    -1.163000000    -1.154000000     2.255000000
O    -2.131000000    -2.848000000     2.985000000
C    -1.291000000    -3.579000000     2.141000000
C    -1.747000000    -3.977000000     0.862000000
H    -2.727000000    -3.785000000     0.434000000
C    -0.920000000    -4.714000000     0.011000000
O    -1.364000000    -4.818000000    -1.350000000
C     0.411000000    -4.915000000     0.398000000
C     1.483000000    -5.429000000    -0.532000000
H     2.221000000    -6.035000000    -0.002000000
C     2.109000000    -4.281000000    -1.250000000
C     3.270000000    -3.668000000    -0.760000000
H     3.677000000    -3.822000000     0.236000000
H     0.993000000    -5.935000000    -1.366000000
C     0.740000000    -4.649000000     1.726000000
H     1.723000000    -4.878000000     2.129000000
C    -0.070000000    -3.946000000     2.609000000
C     0.301000000    -3.566000000     4.067000000
H     0.994000000    -4.259000000     4.550000000
H    -0.611000000    -3.656000000     4.660000000
C     0.828000000    -2.158000000     4.240000000
C     2.217000000    -1.958000000     4.194000000
H     2.871000000    -2.809000000     4.019000000
C     0.016000000    -1.009000000     4.456000000
C     0.511000000     0.226000000     4.663000000
H     0.003000000     1.151000000     4.923000000
C     1.854000000     0.359000000     4.446000000
O     2.205000000     1.662000000     4.430000000
C     2.263000000     2.324000000     3.069000000
C     1.934000000     3.818000000     3.204000000
C     2.426000000     4.784000000     2.344000000
H     3.316000000     4.661000000     1.731000000
C     0.842000000     4.156000000     3.937000000
H     0.454000000     3.379000000     4.591000000
O     3.634000000     2.311000000     2.572000000
H     1.517000000     1.835000000     2.426000000
C     2.776000000    -0.665000000     4.272000000
C     4.181000000    -0.368000000     3.765000000
H     4.895000000    -1.137000000     4.068000000
H     4.579000000     0.506000000     4.285000000
C     4.237000000    -0.032000000     2.220000000
C     4.571000000    -1.078000000     1.368000000
H     4.758000000    -2.066000000     1.782000000
C     4.051000000     1.312000000     1.724000000
C     4.156000000     1.560000000     0.374000000
H     4.009000000     2.582000000     0.035000000
C     4.453000000     0.497000000    -0.449000000
O     4.359000000     0.792000000    -1.790000000
C     3.235000000     0.234000000    -2.516000000
C     2.580000000     1.290000000    -3.419000000
C     2.369000000     2.553000000    -2.819000000
H     2.787000000     2.801000000    -1.846000000
C     1.931000000     0.920000000    -4.631000000
H     1.996000000    -0.089000000    -5.029000000
O     3.621000000    -0.937000000    -3.251000000
H     2.469000000     0.003000000    -1.762000000
C     4.627000000    -0.834000000     0.007000000
C     4.944000000    -1.952000000    -0.925000000
H     5.547000000    -2.691000000    -0.392000000
H     5.608000000    -1.628000000    -1.730000000
C     3.816000000    -2.601000000    -1.492000000
C     3.239000000    -2.161000000    -2.712000000
C     2.046000000    -2.749000000    -3.128000000
H     1.550000000    -2.440000000    -4.044000000
C     1.521000000    -3.750000000    -2.430000000
O     0.263000000    -4.206000000    -2.944000000
C    -0.890000000    -3.793000000    -2.238000000
H    -0.635000000    -2.876000000    -1.687000000
C    -1.952000000    -3.272000000    -3.214000000
C    -3.298000000    -3.181000000    -2.822000000
H    -3.590000000    -3.517000000    -1.830000000
C    -1.669000000    -2.896000000    -4.516000000
H    -0.632000000    -2.863000000    -4.838000000
C    -2.652000000    -2.421000000    -5.358000000
O    -2.395000000    -2.195000000    -6.661000000
C    -3.973000000    -2.288000000    -4.905000000
H    -4.733000000    -1.896000000    -5.575000000
C    -4.322000000    -2.720000000    -3.660000000
O    -5.634000000    -2.527000000    -3.209000000
C    -6.045000000    -2.811000000    -1.857000000
C    -6.140000000    -1.762000000    -0.896000000
H    -5.967000000    -0.763000000    -1.288000000
C    -6.226000000    -4.152000000    -1.489000000
H    -6.239000000    -4.999000000    -2.171000000
C    -6.543000000    -4.447000000    -0.130000000
H    -6.604000000    -5.452000000     0.280000000
C    -6.565000000    -3.439000000     0.815000000
H    -6.862000000    -3.744000000     1.815000000
C    -6.398000000    -2.091000000     0.441000000
O    -6.426000000    -1.068000000     1.360000000
C    -5.370000000    -0.463000000     2.038000000
C    -5.404000000     0.853000000     2.456000000
H    -6.234000000     1.494000000     2.169000000
C    -4.326000000     1.447000000     3.219000000
O    -4.506000000     2.739000000     3.713000000
C    -3.769000000     3.377000000     4.626000000
C    -2.747000000     4.258000000     4.198000000
H    -2.773000000     4.497000000     3.138000000
C    -3.825000000     3.043000000     5.947000000
H    -4.533000000     2.299000000     6.301000000
C    -3.041000000     3.778000000     6.867000000
H    -3.135000000     3.589000000     7.933000000
C    -2.040000000     4.640000000     6.424000000
H    -1.446000000     5.175000000     7.160000000
C    -1.773000000     4.769000000     5.091000000
O    -0.812000000     5.636000000     4.654000000
C     0.297000000     5.418000000     3.963000000
C     0.730000000     6.343000000     3.090000000
H     0.252000000     7.300000000     2.894000000
C     1.815000000     6.033000000     2.278000000
O     2.186000000     6.912000000     1.259000000
C     2.557000000     6.566000000    -0.026000000
C     1.764000000     5.780000000    -0.826000000
H     0.818000000     5.410000000    -0.441000000
C     3.791000000     6.906000000    -0.517000000
H     4.430000000     7.520000000     0.113000000
C     4.256000000     6.412000000    -1.775000000
H     5.261000000     6.691000000    -2.080000000
C     3.474000000     5.555000000    -2.563000000
H     3.897000000     5.129000000    -3.470000000
C     2.184000000     5.335000000    -2.086000000
O     1.272000000     4.684000000    -2.908000000
C     1.545000000     3.453000000    -3.466000000
C     0.914000000     3.087000000    -4.664000000
H     0.309000000     3.868000000    -5.118000000
C     1.062000000     1.861000000    -5.216000000
O     0.388000000     1.661000000    -6.416000000
C     0.238000000     0.379000000    -6.932000000
C     1.162000000    -0.215000000    -7.780000000
H     2.130000000     0.258000000    -7.928000000
C     0.853000000    -1.421000000    -8.291000000
H     1.480000000    -1.904000000    -9.036000000
C    -0.344000000    -2.130000000    -7.988000000
H    -0.535000000    -3.112000000    -8.414000000
C    -1.296000000    -1.521000000    -7.120000000
C    -0.973000000    -0.283000000    -6.613000000
H    -1.669000000     0.212000000    -5.941000000
C    -0.653000000     2.311000000    -0.773000000
H    -0.715000000     3.393000000    -0.855000000
C     0.436000000     1.666000000    -0.197000000
H     1.333000000     2.250000000    -0.010000000
C     0.440000000     0.334000000     0.102000000
H     1.258000000    -0.202000000     0.588000000
C    -0.632000000    -0.448000000    -0.135000000
H    -0.647000000    -1.480000000     0.209000000
C    -1.699000000     0.160000000    -0.835000000
H    -2.534000000    -0.463000000    -1.145000000
C    -1.760000000     1.521000000    -1.162000000
C    -3.055000000     2.152000000    -1.568000000
O    -4.106000000     1.523000000    -1.589000000
O    -3.104000000     3.346000000    -1.876000000
O    -8.365000000     4.748000000     1.035000000
H    -7.804000000     4.346000000     0.372000000
H    -7.805000000     4.821000000     1.809000000
O    -7.919000000     4.134000000    -1.867000000
H    -7.729000000     3.333000000    -1.378000000
H    -7.172000000     4.239000000    -2.456000000
O    -1.242000000     8.113000000    -2.519000000
H    -0.572000000     7.828000000    -3.139000000
H    -1.306000000     7.395000000    -1.889000000
O    -8.119000000     3.057000000    -6.015000000
H    -7.852000000     3.417000000    -6.861000000
H    -7.446000000     3.356000000    -5.404000000
O    -3.331000000     6.791000000     1.356000000
H    -3.855000000     5.998000000     1.242000000
H    -3.425000000     7.009000000     2.283000000
O    -8.236000000    -0.391000000    -4.114000000
H    -8.397000000    -0.216000000    -5.041000000
H    -7.320000000    -0.149000000    -3.981000000
O    -6.926000000     5.689000000    -5.965000000
H    -7.539000000     6.345000000    -5.634000000
H    -6.531000000     6.097000000    -6.736000000
O    -6.347000000     4.811000000     3.066000000
H    -5.408000000     4.632000000     3.106000000
H    -6.739000000     4.172000000     3.661000000
O    -8.413000000     1.104000000    -0.416000000
H    -8.892000000     1.621000000     0.233000000
H    -9.027000000     1.004000000    -1.143000000
O    -5.464000000     4.214000000    -3.292000000
H    -4.734000000     3.808000000    -2.825000000
H    -5.533000000     3.717000000    -4.108000000
O    -5.499000000     0.957000000    -4.098000000
H    -4.697000000     0.798000000    -3.599000000
H    -5.326000000     1.767000000    -4.577000000
O    -4.365000000     0.215000000    -8.457000000
H    -5.227000000     0.230000000    -8.873000000
H    -4.416000000     0.887000000    -7.778000000
O    -6.135000000     2.508000000    -0.293000000
H    -6.637000000     1.695000000    -0.237000000
H    -5.303000000     2.250000000    -0.690000000
O    -6.624000000     6.850000000    -2.910000000
H    -5.995000000     6.129000000    -2.877000000
H    -7.476000000     6.431000000    -2.784000000
O    -2.461000000     4.075000000    -4.307000000
H    -2.721000000     3.845000000    -3.415000000
H    -1.511000000     3.960000000    -4.317000000
O    -4.384000000     4.417000000     0.290000000
H    -5.161000000     3.861000000     0.239000000
H    -3.906000000     4.236000000    -0.519000000
O    -4.927000000     3.175000000    -5.805000000
H    -3.999000000     3.373000000    -5.678000000
H    -5.154000000     3.604000000    -6.630000000
O    -1.961000000     5.745000000    -1.053000000
H    -2.156000000     4.820000000    -1.205000000
H    -2.351000000     5.934000000    -0.199000000
O    -3.901000000     6.166000000    -4.873000000
H    -3.163000000     5.632000000    -4.580000000
H    -4.654000000     5.577000000    -4.833000000
