215
-1456.29679
C    -3.354000000     0.229000000     3.568000000
H    -2.386000000     0.630000000     3.858000000
C    -3.392000000    -1.114000000     3.071000000
C    -4.584000000    -1.520000000     2.446000000
H    -4.568000000    -2.489000000     1.954000000
C    -2.153000000    -1.941000000     2.939000000
O    -1.459000000    -1.882000000     4.184000000
H    -1.607000000    -1.558000000     2.064000000
O    -2.444000000    -3.342000000     2.758000000
C    -1.566000000    -4.082000000     1.923000000
C    -2.078000000    -4.298000000     0.602000000
H    -3.031000000    -3.918000000     0.244000000
C    -1.217000000    -4.757000000    -0.357000000
O    -1.703000000    -4.684000000    -1.659000000
C     0.133000000    -5.130000000    -0.075000000
C     1.071000000    -5.535000000    -1.170000000
H     1.852000000    -6.182000000    -0.766000000
C     1.774000000    -4.214000000    -1.641000000
C     2.918000000    -3.727000000    -0.978000000
H     3.377000000    -4.368000000    -0.229000000
H     0.552000000    -6.044000000    -1.985000000
C     0.569000000    -5.021000000     1.259000000
H     1.578000000    -5.380000000     1.446000000
C    -0.267000000    -4.453000000     2.244000000
C     0.355000000    -4.252000000     3.619000000
H     1.168000000    -4.981000000     3.595000000
H    -0.442000000    -4.562000000     4.298000000
C     0.852000000    -2.819000000     3.831000000
C     2.192000000    -2.511000000     3.762000000
H     2.954000000    -3.256000000     3.546000000
C    -0.035000000    -1.735000000     4.023000000
C     0.387000000    -0.416000000     4.169000000
H    -0.312000000     0.415000000     4.210000000
C     1.711000000    -0.183000000     4.075000000
O     2.093000000     1.108000000     4.143000000
C     2.322000000     1.871000000     2.932000000
C     1.692000000     3.226000000     3.000000000
C     1.910000000     4.028000000     1.851000000
H     2.628000000     3.719000000     1.095000000
C     0.789000000     3.631000000     3.961000000
H     0.491000000     2.996000000     4.791000000
O     3.734000000     1.962000000     2.588000000
H     1.801000000     1.369000000     2.103000000
C     2.629000000    -1.185000000     3.863000000
C     4.041000000    -0.884000000     3.680000000
H     4.648000000    -1.735000000     3.996000000
H     4.348000000    -0.023000000     4.277000000
C     4.381000000    -0.464000000     2.298000000
C     4.711000000    -1.422000000     1.365000000
H     4.701000000    -2.466000000     1.667000000
C     4.274000000     0.883000000     1.867000000
C     4.557000000     1.201000000     0.556000000
H     4.425000000     2.209000000     0.172000000
C     4.818000000     0.195000000    -0.380000000
O     4.805000000     0.530000000    -1.741000000
C     3.505000000     0.320000000    -2.424000000
C     3.126000000     1.526000000    -3.295000000
C     3.468000000     2.824000000    -2.947000000
H     3.943000000     3.034000000    -1.992000000
C     2.535000000     1.361000000    -4.572000000
H     2.212000000     0.343000000    -4.770000000
O     3.516000000    -0.839000000    -3.203000000
H     2.750000000     0.135000000    -1.647000000
C     4.951000000    -1.107000000     0.044000000
C     4.972000000    -2.278000000    -0.877000000
H     5.552000000    -3.115000000    -0.481000000
H     5.516000000    -2.086000000    -1.804000000
C     3.574000000    -2.580000000    -1.458000000
C     3.053000000    -2.017000000    -2.622000000
C     1.885000000    -2.542000000    -3.246000000
H     1.443000000    -2.043000000    -4.104000000
C     1.150000000    -3.529000000    -2.643000000
O    -0.104000000    -3.861000000    -3.134000000
C    -1.245000000    -3.458000000    -2.313000000
H    -0.896000000    -2.782000000    -1.518000000
C    -2.380000000    -2.750000000    -3.128000000
C    -3.705000000    -2.782000000    -2.733000000
H    -4.033000000    -3.397000000    -1.899000000
C    -2.013000000    -1.919000000    -4.173000000
H    -0.988000000    -1.869000000    -4.532000000
C    -2.908000000    -1.119000000    -4.877000000
O    -2.474000000    -0.130000000    -5.829000000
C    -4.252000000    -1.082000000    -4.463000000
H    -4.915000000    -0.354000000    -4.924000000
C    -4.635000000    -1.963000000    -3.423000000
O    -5.903000000    -1.722000000    -2.852000000
C    -6.319000000    -2.186000000    -1.607000000
C    -6.404000000    -1.331000000    -0.520000000
H    -6.183000000    -0.276000000    -0.662000000
C    -6.619000000    -3.539000000    -1.417000000
H    -6.363000000    -4.273000000    -2.177000000
C    -7.241000000    -3.975000000    -0.299000000
H    -7.489000000    -5.027000000    -0.182000000
C    -7.321000000    -3.134000000     0.806000000
H    -7.667000000    -3.452000000     1.786000000
C    -6.908000000    -1.785000000     0.699000000
O    -6.930000000    -1.063000000     1.768000000
C    -5.697000000    -0.722000000     2.484000000
C    -5.667000000     0.529000000     3.042000000
H    -6.602000000     1.084000000     3.009000000
C    -4.524000000     0.969000000     3.620000000
O    -4.465000000     2.315000000     3.977000000
C    -3.580000000     2.865000000     4.810000000
C    -2.527000000     3.626000000     4.352000000
H    -2.394000000     3.694000000     3.276000000
C    -3.809000000     2.791000000     6.205000000
H    -4.733000000     2.305000000     6.506000000
C    -2.974000000     3.362000000     7.069000000
H    -3.245000000     3.297000000     8.119000000
C    -1.965000000     4.255000000     6.640000000
H    -1.445000000     4.887000000     7.355000000
C    -1.772000000     4.410000000     5.281000000
O    -0.735000000     5.196000000     4.812000000
C     0.213000000     4.890000000     3.838000000
C     0.499000000     5.763000000     2.801000000
H     0.064000000     6.759000000     2.769000000
C     1.328000000     5.294000000     1.804000000
O     1.522000000     6.068000000     0.659000000
C     2.639000000     6.051000000    -0.047000000
C     2.565000000     5.616000000    -1.365000000
H     1.709000000     5.150000000    -1.848000000
C     3.829000000     6.645000000     0.431000000
H     3.823000000     7.073000000     1.430000000
C     4.976000000     6.674000000    -0.369000000
H     5.914000000     7.144000000    -0.085000000
C     4.884000000     6.242000000    -1.670000000
H     5.688000000     6.321000000    -2.398000000
C     3.701000000     5.680000000    -2.156000000
O     3.822000000     5.103000000    -3.434000000
C     3.274000000     3.902000000    -3.796000000
C     2.622000000     3.753000000    -5.025000000
H     2.372000000     4.613000000    -5.641000000
C     2.204000000     2.465000000    -5.381000000
O     1.623000000     2.356000000    -6.604000000
C     0.727000000     1.382000000    -6.883000000
C     0.818000000     0.715000000    -8.070000000
H     1.562000000     1.019000000    -8.803000000
C     0.119000000    -0.436000000    -8.331000000
H     0.289000000    -1.147000000    -9.136000000
C    -0.879000000    -0.827000000    -7.410000000
H    -1.527000000    -1.687000000    -7.556000000
C    -1.202000000    -0.012000000    -6.348000000
C    -0.357000000     1.054000000    -6.044000000
H    -0.608000000     1.719000000    -5.221000000
C    -0.547000000     1.711000000    -0.092000000
H     0.009000000     2.632000000     0.062000000
C     0.041000000     0.460000000    -0.120000000
H     1.122000000     0.350000000    -0.085000000
C    -0.722000000    -0.649000000    -0.133000000
H    -0.168000000    -1.585000000    -0.202000000
C    -2.096000000    -0.529000000    -0.161000000
H    -2.634000000    -1.473000000    -0.210000000
C    -2.698000000     0.707000000    -0.165000000
H    -3.784000000     0.677000000    -0.188000000
C    -1.929000000     1.861000000    -0.261000000
C    -2.613000000     3.227000000    -0.255000000
O    -3.832000000     3.227000000    -0.361000000
O    -2.046000000     4.302000000    -0.429000000
O    -8.129000000     6.550000000    -2.133000000
H    -7.344000000     6.594000000    -1.587000000
H    -8.045000000     5.722000000    -2.607000000
O    -7.211000000     4.561000000    -3.525000000
H    -7.384000000     3.629000000    -3.391000000
H    -6.382000000     4.584000000    -4.003000000
O    -1.742000000     8.136000000    -2.928000000
H    -1.062000000     8.527000000    -3.478000000
H    -1.296000000     7.427000000    -2.464000000
O    -1.512000000     8.266000000     1.684000000
H    -2.168000000     7.700000000     2.090000000
H    -1.562000000     8.061000000     0.751000000
O    -6.477000000     6.781000000     0.008000000
H    -6.875000000     6.681000000     0.873000000
H    -5.717000000     6.199000000     0.025000000
O    -6.776000000     1.753000000    -4.415000000
H    -7.228000000     0.937000000    -4.628000000
H    -6.226000000     1.929000000    -5.179000000
O    -8.838000000     1.320000000    -0.356000000
H    -9.334000000     0.992000000    -1.106000000
H    -8.010000000     1.623000000    -0.730000000
O    -4.355000000     4.563000000    -4.464000000
H    -3.678000000     3.887000000    -4.477000000
H    -4.682000000     4.592000000    -5.363000000
O    -5.998000000     5.004000000     3.833000000
H    -5.749000000     4.414000000     3.121000000
H    -6.036000000     4.441000000     4.606000000
O    -4.465000000     5.365000000    -2.049000000
H    -3.894000000     4.767000000    -1.567000000
H    -4.457000000     5.032000000    -2.947000000
O    -6.384000000     2.024000000    -1.639000000
H    -5.459000000     2.074000000    -1.399000000
H    -6.384000000     2.039000000    -2.596000000
O    -6.033000000     4.087000000     1.108000000
H    -6.666000000     4.199000000     0.400000000
H    -5.389000000     3.470000000     0.759000000
O    -4.011000000     7.915000000    -1.541000000
H    -3.276000000     8.110000000    -2.123000000
H    -4.211000000     6.994000000    -1.708000000
O    -1.336000000     3.931000000    -3.005000000
H    -1.628000000     4.400000000    -2.224000000
H    -1.959000000     3.210000000    -3.098000000
O    -4.154000000     7.018000000     3.164000000
H    -4.123000000     6.711000000     2.258000000
H    -4.877000000     6.530000000     3.558000000
O    -3.675000000     5.622000000     0.998000000
H    -4.263000000     4.901000000     0.772000000
H    -2.875000000     5.443000000     0.505000000
O    -3.291000000     2.029000000    -4.007000000
H    -3.373000000     1.159000000    -3.616000000
H    -3.415000000     1.884000000    -4.945000000
O    -0.550000000     6.250000000    -1.314000000
H    -1.144000000     5.550000000    -1.043000000
H     0.090000000     6.308000000    -0.605000000
O    -0.888000000     4.926000000    -5.584000000
H    -1.006000000     4.813000000    -4.641000000
H    -1.594000000     5.517000000    -5.845000000
