215
-1450.55703
C    -3.428000000     0.428000000     3.878000000
H    -2.736000000     0.643000000     4.688000000
C    -3.343000000    -0.804000000     3.218000000
C    -4.436000000    -1.211000000     2.467000000
H    -4.379000000    -2.096000000     1.839000000
C    -2.039000000    -1.630000000     3.339000000
O    -1.306000000    -1.378000000     4.624000000
H    -1.371000000    -1.279000000     2.538000000
O    -2.313000000    -3.043000000     3.155000000
C    -1.413000000    -3.806000000     2.386000000
C    -1.930000000    -4.132000000     1.135000000
H    -2.995000000    -3.977000000     0.981000000
C    -1.101000000    -4.651000000     0.187000000
O    -1.504000000    -4.677000000    -1.111000000
C     0.270000000    -4.955000000     0.517000000
C     1.272000000    -5.437000000    -0.561000000
H     1.969000000    -5.982000000     0.080000000
C     1.905000000    -4.249000000    -1.268000000
C     3.180000000    -3.781000000    -0.943000000
H     3.680000000    -4.429000000    -0.228000000
H     0.862000000    -6.218000000    -1.205000000
C     0.763000000    -4.641000000     1.784000000
H     1.809000000    -4.880000000     1.957000000
C    -0.083000000    -3.996000000     2.709000000
C     0.485000000    -3.619000000     4.117000000
H     1.362000000    -4.223000000     4.359000000
H    -0.238000000    -3.701000000     4.931000000
C     0.962000000    -2.185000000     4.182000000
C     2.321000000    -1.870000000     3.913000000
H     3.065000000    -2.572000000     3.543000000
C     0.059000000    -1.106000000     4.475000000
C     0.446000000     0.228000000     4.505000000
H    -0.228000000     1.043000000     4.757000000
C     1.799000000     0.521000000     4.267000000
O     2.226000000     1.781000000     4.073000000
C     2.338000000     2.160000000     2.720000000
C     1.576000000     3.482000000     2.484000000
C     2.017000000     4.339000000     1.457000000
H     2.818000000     3.910000000     0.860000000
C     0.552000000     3.908000000     3.350000000
H     0.323000000     3.302000000     4.223000000
O     3.760000000     2.179000000     2.317000000
H     1.858000000     1.400000000     2.086000000
C     2.729000000    -0.562000000     3.936000000
C     4.224000000    -0.227000000     3.593000000
H     4.817000000    -1.119000000     3.804000000
H     4.566000000     0.567000000     4.259000000
C     4.569000000    -0.034000000     2.100000000
C     4.909000000    -1.112000000     1.301000000
H     4.956000000    -2.078000000     1.798000000
C     4.245000000     1.198000000     1.527000000
C     4.293000000     1.384000000     0.200000000
H     3.910000000     2.262000000    -0.315000000
C     4.714000000     0.290000000    -0.635000000
O     4.740000000     0.578000000    -1.944000000
C     3.527000000     0.201000000    -2.673000000
C     3.015000000     1.301000000    -3.606000000
C     3.298000000     2.654000000    -3.381000000
H     4.090000000     2.927000000    -2.688000000
C     2.074000000     1.007000000    -4.628000000
H     1.721000000     0.008000000    -4.867000000
O     3.677000000    -1.057000000    -3.349000000
H     2.671000000     0.043000000    -2.001000000
C     4.920000000    -0.919000000    -0.086000000
C     5.121000000    -2.129000000    -1.041000000
H     5.553000000    -2.919000000    -0.423000000
H     5.610000000    -1.889000000    -1.988000000
C     3.776000000    -2.709000000    -1.551000000
C     3.083000000    -2.104000000    -2.619000000
C     1.871000000    -2.584000000    -3.010000000
H     1.293000000    -2.141000000    -3.817000000
C     1.223000000    -3.625000000    -2.337000000
O    -0.047000000    -3.917000000    -2.758000000
C    -1.110000000    -3.540000000    -1.948000000
H    -0.674000000    -2.786000000    -1.276000000
C    -2.293000000    -3.017000000    -2.780000000
C    -3.595000000    -2.988000000    -2.216000000
H    -3.829000000    -3.346000000    -1.217000000
C    -2.071000000    -2.407000000    -4.042000000
H    -1.040000000    -2.193000000    -4.312000000
C    -3.148000000    -1.835000000    -4.757000000
O    -2.993000000    -1.224000000    -6.011000000
C    -4.433000000    -2.000000000    -4.242000000
H    -5.206000000    -1.533000000    -4.846000000
C    -4.635000000    -2.503000000    -2.937000000
O    -5.919000000    -2.495000000    -2.525000000
C    -6.369000000    -2.811000000    -1.261000000
C    -6.355000000    -1.815000000    -0.296000000
H    -5.917000000    -0.834000000    -0.462000000
C    -6.889000000    -4.046000000    -0.974000000
H    -6.950000000    -4.820000000    -1.735000000
C    -7.482000000    -4.283000000     0.256000000
H    -7.856000000    -5.243000000     0.605000000
C    -7.563000000    -3.311000000     1.195000000
H    -8.190000000    -3.480000000     2.067000000
C    -6.862000000    -2.105000000     0.957000000
O    -6.812000000    -1.106000000     1.945000000
C    -5.626000000    -0.514000000     2.488000000
C    -5.703000000     0.707000000     3.124000000
H    -6.612000000     1.275000000     2.948000000
C    -4.584000000     1.186000000     3.780000000
O    -4.654000000     2.407000000     4.402000000
C    -3.536000000     3.079000000     4.887000000
C    -2.767000000     3.932000000     4.125000000
H    -2.733000000     3.836000000     3.043000000
C    -3.205000000     2.845000000     6.237000000
H    -3.736000000     2.132000000     6.863000000
C    -2.176000000     3.663000000     6.770000000
H    -1.900000000     3.670000000     7.822000000
C    -1.573000000     4.635000000     6.063000000
H    -0.829000000     5.261000000     6.548000000
C    -1.865000000     4.717000000     4.772000000
O    -1.053000000     5.602000000     4.039000000
C    -0.120000000     5.103000000     3.104000000
C     0.400000000     5.984000000     2.051000000
H    -0.007000000     6.990000000     2.000000000
C     1.426000000     5.544000000     1.273000000
O     1.937000000     6.427000000     0.366000000
C     3.026000000     6.154000000    -0.516000000
C     2.751000000     5.526000000    -1.739000000
H     1.715000000     5.208000000    -1.823000000
C     4.300000000     6.609000000    -0.307000000
H     4.464000000     7.062000000     0.667000000
C     5.247000000     6.485000000    -1.373000000
H     6.276000000     6.766000000    -1.166000000
C     4.912000000     6.027000000    -2.625000000
H     5.609000000     5.960000000    -3.457000000
C     3.648000000     5.473000000    -2.807000000
O     3.263000000     5.002000000    -4.023000000
C     2.828000000     3.683000000    -4.240000000
C     1.960000000     3.313000000    -5.264000000
H     1.584000000     4.116000000    -5.894000000
C     1.580000000     1.997000000    -5.465000000
O     0.708000000     1.808000000    -6.543000000
C     0.087000000     0.664000000    -6.851000000
C     0.639000000    -0.070000000    -7.944000000
H     1.470000000     0.301000000    -8.538000000
C    -0.037000000    -1.211000000    -8.305000000
H     0.283000000    -1.740000000    -9.199000000
C    -1.178000000    -1.654000000    -7.688000000
H    -1.689000000    -2.541000000    -8.054000000
C    -1.774000000    -0.906000000    -6.642000000
C    -1.081000000     0.213000000    -6.229000000
H    -1.483000000     0.837000000    -5.435000000
C    -0.496000000     2.523000000    -0.001000000
H    -0.095000000     3.533000000    -0.033000000
C     0.382000000     1.521000000    -0.360000000
H     1.439000000     1.702000000    -0.535000000
C    -0.061000000     0.203000000    -0.533000000
H     0.545000000    -0.707000000    -0.707000000
C    -1.401000000    -0.047000000    -0.287000000
H    -1.744000000    -1.079000000    -0.283000000
C    -2.322000000     0.939000000     0.015000000
H    -3.374000000     0.726000000     0.186000000
C    -1.857000000     2.283000000     0.150000000
C    -2.842000000     3.428000000     0.310000000
O    -4.009000000     3.111000000     0.472000000
O    -2.460000000     4.620000000     0.434000000
O    -7.564000000     5.477000000    -1.339000000
H    -8.447000000     5.798000000    -1.156000000
H    -7.520000000     4.631000000    -0.895000000
O    -3.600000000     6.739000000     1.475000000
H    -3.114000000     6.079000000     0.980000000
H    -4.341000000     6.261000000     1.847000000
O    -4.786000000     6.927000000    -1.700000000
H    -4.585000000     6.033000000    -1.979000000
H    -5.663000000     6.867000000    -1.321000000
O    -2.044000000     9.087000000     1.191000000
H    -1.395000000     9.047000000     0.490000000
H    -2.657000000     8.380000000     0.991000000
O    -4.431000000     1.705000000    -3.681000000
H    -4.292000000     1.974000000    -4.589000000
H    -4.381000000     0.750000000    -3.704000000
O    -4.524000000     4.430000000    -2.574000000
H    -4.543000000     4.332000000    -1.622000000
H    -4.646000000     3.542000000    -2.909000000
O    -3.730000000     5.433000000    -6.094000000
H    -3.571000000     6.354000000    -6.303000000
H    -3.315000000     5.306000000    -5.241000000
O    -7.461000000     6.035000000    -3.962000000
H    -7.314000000     5.772000000    -3.053000000
H    -7.062000000     5.337000000    -4.481000000
O    -5.954000000     2.007000000    -1.056000000
H    -5.263000000     2.117000000    -0.403000000
H    -5.495000000     2.019000000    -1.896000000
O    -3.489000000     7.688000000     3.996000000
H    -3.373000000     6.844000000     4.433000000
H    -3.423000000     7.486000000     3.063000000
O    -6.960000000     3.928000000     4.621000000
H    -6.506000000     3.139000000     4.917000000
H    -6.695000000     4.028000000     3.707000000
O    -7.486000000     3.129000000     0.830000000
H    -8.157000000     2.477000000     0.625000000
H    -6.798000000     2.976000000     0.183000000
O    -2.957000000     7.133000000    -3.964000000
H    -2.367000000     6.656000000    -3.381000000
H    -3.751000000     7.264000000    -3.446000000
O    -5.573000000     9.029000000     0.417000000
H    -4.822000000     8.486000000     0.179000000
H    -6.159000000     8.435000000     0.887000000
O    -0.501000000     4.907000000    -4.079000000
H    -0.810000000     5.435000000    -3.343000000
H    -0.676000000     4.003000000    -3.816000000
O    -7.076000000     7.417000000     2.105000000
H    -7.536000000     6.603000000     1.900000000
H    -7.060000000     7.449000000     3.061000000
O    -5.532000000     4.663000000     2.085000000
H    -6.272000000     4.343000000     1.569000000
H    -4.821000000     4.052000000     1.889000000
O    -1.676000000     2.619000000    -3.387000000
H    -2.522000000     2.175000000    -3.333000000
H    -1.193000000     2.308000000    -2.622000000
O    -1.207000000     6.020000000    -1.648000000
H    -1.596000000     5.565000000    -0.900000000
H    -0.716000000     6.744000000    -1.259000000
