215
-1451.27977
C    -4.219000000    -0.158000000     2.173000000
H    -3.663000000     0.587000000     2.736000000
C    -3.822000000    -1.466000000     2.025000000
C    -4.641000000    -2.257000000     1.189000000
H    -4.397000000    -3.285000000     0.937000000
C    -2.491000000    -1.981000000     2.591000000
O    -2.283000000    -1.716000000     4.021000000
H    -1.696000000    -1.453000000     2.044000000
O    -2.351000000    -3.422000000     2.462000000
C    -1.225000000    -3.931000000     1.913000000
C    -1.238000000    -4.247000000     0.558000000
H    -2.084000000    -4.085000000    -0.106000000
C    -0.063000000    -4.629000000    -0.020000000
O    -0.128000000    -4.780000000    -1.460000000
C     1.140000000    -4.646000000     0.704000000
C     2.435000000    -4.952000000     0.028000000
H     3.112000000    -5.316000000     0.803000000
C     3.106000000    -3.721000000    -0.561000000
C     4.068000000    -2.973000000     0.212000000
H     4.279000000    -3.192000000     1.255000000
H     2.422000000    -5.808000000    -0.650000000
C     1.136000000    -4.424000000     2.057000000
H     2.063000000    -4.480000000     2.622000000
C    -0.068000000    -4.036000000     2.660000000
C    -0.067000000    -3.736000000     4.150000000
H     0.710000000    -4.332000000     4.634000000
H    -1.003000000    -4.070000000     4.603000000
C     0.079000000    -2.222000000     4.509000000
C     1.362000000    -1.746000000     4.860000000
H     2.138000000    -2.502000000     4.945000000
C    -1.014000000    -1.318000000     4.377000000
C    -0.743000000     0.084000000     4.419000000
H    -1.525000000     0.812000000     4.220000000
C     0.588000000     0.482000000     4.636000000
O     0.713000000     1.876000000     4.603000000
C     1.026000000     2.443000000     3.342000000
C     0.169000000     3.619000000     3.125000000
C     0.363000000     4.349000000     1.969000000
H     1.235000000     4.163000000     1.347000000
C    -1.004000000     3.869000000     3.885000000
H    -1.299000000     3.301000000     4.764000000
O     2.403000000     2.721000000     3.366000000
H     0.878000000     1.704000000     2.540000000
C     1.650000000    -0.413000000     4.779000000
C     3.110000000     0.143000000     4.764000000
H     3.828000000    -0.646000000     4.998000000
H     3.246000000     1.003000000     5.422000000
C     3.550000000     0.584000000     3.338000000
C     4.416000000    -0.283000000     2.614000000
H     4.530000000    -1.295000000     2.995000000
C     3.264000000     1.827000000     2.776000000
C     3.799000000     2.173000000     1.540000000
H     3.523000000     3.123000000     1.090000000
C     4.684000000     1.337000000     0.820000000
O     5.046000000     1.658000000    -0.517000000
C     4.147000000     1.038000000    -1.509000000
C     3.687000000     2.086000000    -2.493000000
C     3.710000000     3.476000000    -2.163000000
H     4.123000000     3.825000000    -1.220000000
C     3.133000000     1.605000000    -3.722000000
H     3.012000000     0.538000000    -3.892000000
O     4.575000000    -0.211000000    -2.167000000
H     3.234000000     0.847000000    -0.925000000
C     4.976000000     0.086000000     1.410000000
C     5.628000000    -1.002000000     0.528000000
H     6.274000000    -1.580000000     1.193000000
H     6.295000000    -0.488000000    -0.166000000
C     4.611000000    -1.815000000    -0.324000000
C     4.241000000    -1.392000000    -1.622000000
C     3.466000000    -2.286000000    -2.392000000
H     3.285000000    -2.024000000    -3.432000000
C     2.766000000    -3.375000000    -1.868000000
O     1.763000000    -3.925000000    -2.634000000
C     0.411000000    -3.638000000    -2.218000000
H     0.418000000    -2.746000000    -1.574000000
C    -0.494000000    -3.176000000    -3.411000000
C    -1.878000000    -3.287000000    -3.209000000
H    -2.253000000    -3.720000000    -2.285000000
C    -0.081000000    -2.713000000    -4.636000000
H     0.966000000    -2.560000000    -4.885000000
C    -0.957000000    -2.468000000    -5.673000000
O    -0.493000000    -1.874000000    -6.839000000
C    -2.350000000    -2.583000000    -5.476000000
H    -3.033000000    -2.656000000    -6.318000000
C    -2.825000000    -3.025000000    -4.236000000
O    -4.177000000    -3.189000000    -4.188000000
C    -4.882000000    -3.688000000    -3.103000000
C    -5.412000000    -2.799000000    -2.184000000
H    -5.211000000    -1.737000000    -2.301000000
C    -4.967000000    -5.024000000    -2.986000000
H    -4.408000000    -5.631000000    -3.694000000
C    -5.641000000    -5.542000000    -1.904000000
H    -5.749000000    -6.615000000    -1.766000000
C    -6.316000000    -4.706000000    -1.022000000
H    -6.935000000    -5.195000000    -0.274000000
C    -6.198000000    -3.352000000    -1.115000000
O    -6.694000000    -2.603000000     0.004000000
C    -5.855000000    -1.739000000     0.698000000
C    -6.277000000    -0.408000000     1.023000000
H    -7.237000000    -0.062000000     0.647000000
C    -5.372000000     0.360000000     1.671000000
O    -5.559000000     1.702000000     1.754000000
C    -5.378000000     2.430000000     2.912000000
C    -4.269000000     3.272000000     2.956000000
H    -3.616000000     3.377000000     2.092000000
C    -6.203000000     2.258000000     4.034000000
H    -6.938000000     1.459000000     4.076000000
C    -5.951000000     3.002000000     5.211000000
H    -6.424000000     2.831000000     6.175000000
C    -4.885000000     3.914000000     5.206000000
H    -4.773000000     4.462000000     6.138000000
C    -4.049000000     4.044000000     4.083000000
O    -3.074000000     4.974000000     4.170000000
C    -1.912000000     4.859000000     3.495000000
C    -1.603000000     5.636000000     2.370000000
H    -2.337000000     6.360000000     2.026000000
C    -0.474000000     5.387000000     1.598000000
O    -0.349000000     6.097000000     0.437000000
C     0.934000000     6.420000000    -0.093000000
C     1.479000000     5.843000000    -1.261000000
H     0.911000000     5.139000000    -1.863000000
C     1.705000000     7.342000000     0.568000000
H     1.250000000     7.820000000     1.432000000
C     3.002000000     7.779000000     0.146000000
H     3.557000000     8.543000000     0.685000000
C     3.555000000     7.167000000    -0.969000000
H     4.505000000     7.401000000    -1.442000000
C     2.780000000     6.231000000    -1.665000000
O     3.297000000     5.764000000    -2.837000000
C     3.200000000     4.409000000    -3.121000000
C     2.600000000     3.886000000    -4.325000000
H     2.288000000     4.600000000    -5.084000000
C     2.518000000     2.469000000    -4.595000000
O     1.794000000     2.025000000    -5.680000000
C     1.809000000     0.770000000    -6.209000000
C     2.954000000     0.176000000    -6.691000000
H     3.909000000     0.614000000    -6.411000000
C     3.011000000    -1.062000000    -7.368000000
H     3.886000000    -1.583000000    -7.748000000
C     1.815000000    -1.751000000    -7.535000000
H     1.855000000    -2.764000000    -7.928000000
C     0.658000000    -1.182000000    -7.020000000
C     0.652000000     0.065000000    -6.343000000
H    -0.254000000     0.455000000    -5.884000000
C    -1.355000000     2.105000000    -0.601000000
H    -1.636000000     3.154000000    -0.625000000
C    -0.089000000     1.756000000    -0.221000000
H     0.633000000     2.515000000     0.069000000
C     0.267000000     0.431000000    -0.084000000
H     1.264000000     0.228000000     0.184000000
C    -0.731000000    -0.552000000    -0.285000000
H    -0.441000000    -1.598000000    -0.217000000
C    -2.034000000    -0.204000000    -0.648000000
H    -2.793000000    -0.958000000    -0.841000000
C    -2.351000000     1.174000000    -0.855000000
C    -3.684000000     1.556000000    -1.417000000
O    -4.338000000     0.702000000    -1.977000000
O    -3.992000000     2.716000000    -1.375000000
O    -8.454000000     5.619000000    -1.061000000
H    -7.912000000     6.395000000    -1.195000000
H    -7.987000000     5.112000000    -0.396000000
O    -9.953000000     1.712000000    -4.031000000
H    -9.758000000     2.634000000    -4.195000000
H    -9.112000000     1.267000000    -4.140000000
O    -1.269000000     3.325000000    -5.739000000
H    -0.499000000     2.853000000    -6.058000000
H    -1.417000000     2.976000000    -4.860000000
O    -3.033000000     0.549000000    -6.829000000
H    -2.204000000     0.479000000    -6.355000000
H    -3.597000000    -0.110000000    -6.423000000
O    -8.176000000    -0.810000000    -4.408000000
H    -8.263000000    -1.308000000    -5.221000000
H    -8.929000000    -1.078000000    -3.881000000
O    -5.685000000     2.091000000    -7.065000000
H    -4.869000000     2.303000000    -7.518000000
H    -5.631000000     1.149000000    -6.903000000
O    -3.253000000     5.133000000    -2.297000000
H    -3.388000000     4.270000000    -1.906000000
H    -2.952000000     4.948000000    -3.187000000
O    -2.775000000     8.086000000    -0.977000000
H    -2.763000000     7.146000000    -1.154000000
H    -1.898000000     8.386000000    -1.216000000
O    -3.200000000    -0.142000000    -4.078000000
H    -3.703000000     0.153000000    -3.319000000
H    -3.829000000    -0.637000000    -4.603000000
O    -0.906000000     1.455000000    -3.551000000
H    -1.673000000     0.886000000    -3.620000000
H    -0.380000000     1.065000000    -2.854000000
O    -9.167000000     2.232000000     0.045000000
H    -8.265000000     2.208000000    -0.274000000
H    -9.658000000     1.702000000    -0.583000000
O    -7.023000000     0.896000000    -2.002000000
H    -6.069000000     0.919000000    -1.932000000
H    -7.196000000     0.295000000    -2.727000000
O    -5.346000000     6.135000000    -1.165000000
H    -4.582000000     5.920000000    -1.701000000
H    -5.653000000     5.291000000    -0.836000000
O    -7.381000000     4.976000000    -3.608000000
H    -6.756000000     4.267000000    -3.460000000
H    -8.093000000     4.801000000    -2.993000000
O    -9.221000000     0.719000000     2.260000000
H   -10.046000000     1.127000000     2.522000000
H    -9.122000000     0.952000000     1.337000000
O    -5.353000000     3.220000000    -4.340000000
H    -5.652000000     2.654000000    -5.052000000
H    -5.099000000     2.615000000    -3.643000000
O    -6.082000000     3.739000000    -0.182000000
H    -5.237000000     3.458000000    -0.534000000
H    -6.254000000     3.135000000     0.540000000
O    -5.389000000     5.351000000    -6.039000000
H    -6.280000000     5.566000000    -6.314000000
H    -5.500000000     4.665000000    -5.380000000
O    -5.486000000    -0.890000000    -5.538000000
H    -6.410000000    -0.902000000    -5.286000000
H    -5.255000000    -1.813000000    -5.642000000
