215
-1476.23619
C    -3.579000000     0.647000000     3.351000000
H    -2.881000000     1.059000000     4.075000000
C    -3.298000000    -0.644000000     2.845000000
C    -3.943000000    -1.085000000     1.720000000
H    -3.684000000    -2.048000000     1.287000000
C    -2.018000000    -1.385000000     3.323000000
O    -1.559000000    -0.965000000     4.604000000
H    -1.231000000    -0.981000000     2.670000000
O    -2.152000000    -2.828000000     3.155000000
C    -1.110000000    -3.580000000     2.632000000
C    -1.380000000    -4.176000000     1.450000000
H    -2.347000000    -4.124000000     0.957000000
C    -0.375000000    -4.837000000     0.735000000
O    -0.633000000    -5.270000000    -0.501000000
C     0.933000000    -4.780000000     1.237000000
C     2.107000000    -5.362000000     0.412000000
H     2.921000000    -5.619000000     1.093000000
C     2.655000000    -4.247000000    -0.509000000
C     3.756000000    -3.513000000    -0.055000000
H     4.256000000    -3.739000000     0.883000000
H     1.867000000    -6.245000000    -0.185000000
C     1.180000000    -4.159000000     2.462000000
H     2.234000000    -4.091000000     2.720000000
C     0.153000000    -3.581000000     3.209000000
C     0.503000000    -3.086000000     4.590000000
H     1.234000000    -3.723000000     5.093000000
H    -0.367000000    -3.265000000     5.224000000
C     0.806000000    -1.601000000     4.602000000
C     2.095000000    -1.195000000     4.349000000
H     2.799000000    -1.977000000     4.074000000
C    -0.245000000    -0.594000000     4.697000000
C     0.151000000     0.787000000     4.600000000
H    -0.699000000     1.448000000     4.453000000
C     1.476000000     1.161000000     4.472000000
O     1.782000000     2.487000000     4.237000000
C     1.876000000     2.913000000     2.845000000
C     1.264000000     4.321000000     2.704000000
C     1.637000000     5.255000000     1.721000000
H     2.458000000     5.005000000     1.054000000
C     0.137000000     4.624000000     3.502000000
H    -0.243000000     3.948000000     4.264000000
O     3.231000000     2.931000000     2.446000000
H     1.346000000     2.176000000     2.224000000
C     2.471000000     0.147000000     4.287000000
C     3.886000000     0.582000000     3.969000000
H     4.659000000    -0.083000000     4.359000000
H     4.021000000     1.555000000     4.444000000
C     4.143000000     0.703000000     2.482000000
C     4.733000000    -0.387000000     1.784000000
H     5.053000000    -1.277000000     2.320000000
C     3.698000000     1.825000000     1.824000000
C     3.867000000     1.842000000     0.376000000
H     3.510000000     2.697000000    -0.192000000
C     4.398000000     0.763000000    -0.276000000
O     4.441000000     0.821000000    -1.659000000
C     3.428000000     0.103000000    -2.373000000
C     2.753000000     1.036000000    -3.348000000
C     2.138000000     2.191000000    -2.849000000
H     2.161000000     2.449000000    -1.793000000
C     2.490000000     0.665000000    -4.652000000
H     2.735000000    -0.349000000    -4.958000000
O     3.995000000    -1.161000000    -2.890000000
H     2.635000000    -0.146000000    -1.653000000
C     4.821000000    -0.384000000     0.386000000
C     5.364000000    -1.614000000    -0.292000000
H     5.998000000    -2.157000000     0.412000000
H     6.011000000    -1.178000000    -1.056000000
C     4.344000000    -2.530000000    -0.877000000
C     3.709000000    -2.222000000    -2.089000000
C     2.612000000    -3.019000000    -2.555000000
H     2.167000000    -2.749000000    -3.509000000
C     2.165000000    -4.082000000    -1.845000000
O     1.030000000    -4.778000000    -2.185000000
C    -0.221000000    -4.418000000    -1.571000000
H    -0.034000000    -3.423000000    -1.142000000
C    -1.249000000    -4.228000000    -2.678000000
C    -2.584000000    -4.553000000    -2.405000000
H    -2.797000000    -4.951000000    -1.416000000
C    -0.932000000    -3.649000000    -3.902000000
H     0.095000000    -3.409000000    -4.162000000
C    -1.982000000    -3.466000000    -4.867000000
O    -1.795000000    -2.549000000    -5.887000000
C    -3.283000000    -3.841000000    -4.542000000
H    -4.084000000    -3.643000000    -5.250000000
C    -3.588000000    -4.355000000    -3.277000000
O    -4.900000000    -4.454000000    -2.931000000
C    -5.611000000    -3.836000000    -1.921000000
C    -5.380000000    -2.559000000    -1.513000000
H    -4.702000000    -1.902000000    -2.052000000
C    -6.517000000    -4.651000000    -1.252000000
H    -6.733000000    -5.670000000    -1.563000000
C    -7.089000000    -4.145000000    -0.094000000
H    -7.806000000    -4.746000000     0.460000000
C    -6.768000000    -2.881000000     0.372000000
H    -7.298000000    -2.474000000     1.229000000
C    -5.830000000    -2.115000000    -0.336000000
O    -5.526000000    -0.826000000    -0.028000000
C    -4.872000000    -0.283000000     1.049000000
C    -5.171000000     0.957000000     1.549000000
H    -5.857000000     1.558000000     0.957000000
C    -4.551000000     1.454000000     2.662000000
O    -4.913000000     2.726000000     3.087000000
C    -4.261000000     3.524000000     4.026000000
C    -3.309000000     4.415000000     3.549000000
H    -3.280000000     4.597000000     2.478000000
C    -4.499000000     3.251000000     5.370000000
H    -5.173000000     2.452000000     5.667000000
C    -3.915000000     4.140000000     6.304000000
H    -4.099000000     3.980000000     7.363000000
C    -2.930000000     5.033000000     5.854000000
H    -2.373000000     5.736000000     6.468000000
C    -2.607000000     5.110000000     4.490000000
O    -1.653000000     6.078000000     4.124000000
C    -0.605000000     5.773000000     3.314000000
C    -0.200000000     6.700000000     2.357000000
H    -0.866000000     7.542000000     2.188000000
C     0.967000000     6.476000000     1.564000000
O     1.389000000     7.286000000     0.454000000
C     1.742000000     6.794000000    -0.795000000
C     1.250000000     5.609000000    -1.337000000
H     0.484000000     5.054000000    -0.802000000
C     2.671000000     7.528000000    -1.476000000
H     3.083000000     8.431000000    -1.033000000
C     3.139000000     7.091000000    -2.711000000
H     3.944000000     7.653000000    -3.178000000
C     2.648000000     5.893000000    -3.321000000
H     3.046000000     5.595000000    -4.288000000
C     1.675000000     5.157000000    -2.587000000
O     0.888000000     4.149000000    -3.149000000
C     1.446000000     3.068000000    -3.671000000
C     1.213000000     2.742000000    -4.968000000
H     0.651000000     3.458000000    -5.562000000
C     1.689000000     1.457000000    -5.459000000
O     1.297000000     1.047000000    -6.732000000
C     0.827000000    -0.261000000    -6.990000000
C     1.471000000    -1.055000000    -7.977000000
H     2.178000000    -0.629000000    -8.684000000
C     1.190000000    -2.446000000    -8.064000000
H     1.706000000    -3.126000000    -8.738000000
C     0.214000000    -3.013000000    -7.239000000
H    -0.008000000    -4.074000000    -7.321000000
C    -0.570000000    -2.133000000    -6.450000000
C    -0.211000000    -0.810000000    -6.287000000
H    -0.839000000    -0.220000000    -5.624000000
C    -1.436000000     1.824000000    -0.197000000
H    -1.909000000     2.737000000     0.157000000
C    -1.061000000     0.794000000     0.666000000
H    -1.221000000     0.989000000     1.724000000
C    -0.497000000    -0.360000000     0.213000000
H     0.095000000    -1.053000000     0.841000000
C    -0.396000000    -0.526000000    -1.145000000
H     0.171000000    -1.375000000    -1.517000000
C    -0.781000000     0.476000000    -2.005000000
H    -0.627000000     0.325000000    -3.070000000
C    -1.298000000     1.662000000    -1.586000000
C    -1.729000000     2.768000000    -2.583000000
O    -2.066000000     2.427000000    -3.685000000
O    -2.081000000     3.865000000    -2.100000000
O    -7.381000000     4.912000000    -4.282000000
H    -7.229000000     4.131000000    -4.814000000
H    -7.746000000     5.551000000    -4.893000000
O    -4.336000000     4.808000000    -7.184000000
H    -3.395000000     4.975000000    -7.226000000
H    -4.455000000     4.304000000    -6.379000000
O    -1.689000000     8.685000000    -1.411000000
H    -2.398000000     9.142000000    -0.959000000
H    -1.785000000     7.771000000    -1.145000000
O    -4.365000000     0.856000000    -6.759000000
H    -4.310000000     0.721000000    -5.813000000
H    -3.542000000     1.290000000    -6.987000000
O    -5.243000000     6.998000000    -5.964000000
H    -5.274000000     6.704000000    -5.054000000
H    -4.905000000     6.244000000    -6.448000000
O    -1.899000000     5.995000000    -3.619000000
H    -2.003000000     5.090000000    -3.326000000
H    -1.158000000     6.327000000    -3.113000000
O    -1.747000000     2.056000000    -6.301000000
H    -0.883000000     2.189000000    -6.690000000
H    -1.664000000     2.394000000    -5.409000000
O    -4.913000000     5.877000000     0.929000000
H    -5.858000000     6.015000000     0.865000000
H    -4.725000000     5.201000000     0.277000000
O    -0.163000000     3.930000000    -8.435000000
H    -0.664000000     4.484000000    -7.837000000
H    -0.610000000     4.021000000    -9.277000000
O    -5.828000000     1.910000000    -2.686000000
H    -5.397000000     1.402000000    -3.373000000
H    -6.614000000     2.260000000    -3.104000000
O    -4.380000000     7.333000000    -3.015000000
H    -3.615000000     6.848000000    -3.325000000
H    -4.318000000     7.294000000    -2.061000000
O     4.836000000     3.877000000    -1.792000000
H     5.046000000     3.687000000    -2.706000000
H     3.921000000     4.158000000    -1.809000000
O    -3.790000000     0.464000000    -4.168000000
H    -3.506000000    -0.234000000    -3.579000000
H    -3.109000000     1.133000000    -4.093000000
O    -8.070000000    -0.171000000    -2.310000000
H    -7.257000000     0.213000000    -1.982000000
H    -7.962000000    -0.183000000    -3.261000000
O    -4.401000000     3.662000000    -4.535000000
H    -4.675000000     3.679000000    -3.618000000
H    -3.461000000     3.482000000    -4.501000000
O    -4.501000000     3.882000000    -0.720000000
H    -3.774000000     3.925000000    -1.340000000
H    -4.951000000     3.065000000    -0.935000000
O    -6.554000000     2.530000000    -5.596000000
H    -5.801000000     2.932000000    -5.164000000
H    -6.174000000     1.862000000    -6.167000000
O    -2.469000000     6.207000000    -0.597000000
H    -3.055000000     5.941000000     0.111000000
H    -2.338000000     5.410000000    -1.111000000
O    -1.776000000     5.315000000    -6.287000000
H    -1.260000000     6.082000000    -6.533000000
H    -1.865000000     5.380000000    -5.337000000
