215
-1426.52740
C    -4.132000000    -0.138000000     2.295000000
H    -3.443000000     0.506000000     2.836000000
C    -3.819000000    -1.465000000     2.117000000
C    -4.716000000    -2.254000000     1.400000000
H    -4.562000000    -3.315000000     1.215000000
C    -2.545000000    -2.151000000     2.691000000
O    -2.312000000    -1.780000000     4.091000000
H    -1.718000000    -1.697000000     2.126000000
O    -2.398000000    -3.496000000     2.424000000
C    -1.175000000    -4.041000000     2.044000000
C    -1.140000000    -4.368000000     0.700000000
H    -2.066000000    -4.154000000     0.173000000
C     0.049000000    -4.773000000     0.089000000
O     0.128000000    -5.022000000    -1.262000000
C     1.210000000    -4.891000000     0.894000000
C     2.592000000    -5.086000000     0.330000000
H     3.181000000    -5.413000000     1.190000000
C     3.202000000    -3.827000000    -0.370000000
C     4.105000000    -3.063000000     0.289000000
H     4.269000000    -3.296000000     1.337000000
H     2.615000000    -5.956000000    -0.330000000
C     1.141000000    -4.527000000     2.210000000
H     2.013000000    -4.242000000     2.792000000
C    -0.073000000    -4.150000000     2.868000000
C    -0.107000000    -3.657000000     4.341000000
H     0.791000000    -4.052000000     4.821000000
H    -1.031000000    -4.057000000     4.765000000
C     0.100000000    -2.146000000     4.483000000
C     1.366000000    -1.524000000     4.691000000
H     2.233000000    -2.177000000     4.639000000
C    -1.057000000    -1.324000000     4.395000000
C    -0.822000000     0.081000000     4.560000000
H    -1.734000000     0.655000000     4.414000000
C     0.384000000     0.682000000     4.744000000
O     0.457000000     2.091000000     4.637000000
C     0.800000000     2.758000000     3.416000000
C     0.168000000     4.123000000     3.287000000
C     0.724000000     5.191000000     2.503000000
H     1.682000000     5.108000000     1.997000000
C    -1.216000000     4.209000000     3.641000000
H    -1.674000000     3.269000000     3.940000000
O     2.216000000     2.931000000     3.309000000
H     0.460000000     2.161000000     2.557000000
C     1.518000000    -0.114000000     4.622000000
C     2.899000000     0.471000000     4.656000000
H     3.581000000    -0.262000000     5.093000000
H     2.868000000     1.347000000     5.306000000
C     3.304000000     0.773000000     3.199000000
C     4.074000000    -0.154000000     2.566000000
H     4.252000000    -1.059000000     3.141000000
C     2.984000000     1.966000000     2.653000000
C     3.371000000     2.194000000     1.342000000
H     3.032000000     3.135000000     0.917000000
C     4.138000000     1.231000000     0.641000000
O     4.444000000     1.440000000    -0.684000000
C     3.646000000     0.748000000    -1.561000000
C     3.058000000     1.701000000    -2.560000000
C     2.570000000     2.956000000    -2.204000000
H     2.681000000     3.378000000    -1.208000000
C     2.928000000     1.285000000    -3.906000000
H     3.375000000     0.362000000    -4.264000000
O     4.456000000    -0.289000000    -2.124000000
H     2.866000000     0.264000000    -0.956000000
C     4.578000000     0.077000000     1.317000000
C     5.434000000    -0.990000000     0.619000000
H     5.884000000    -1.700000000     1.315000000
H     6.223000000    -0.555000000     0.001000000
C     4.600000000    -1.858000000    -0.257000000
C     4.207000000    -1.515000000    -1.561000000
C     3.348000000    -2.345000000    -2.304000000
H     3.011000000    -2.209000000    -3.328000000
C     2.909000000    -3.585000000    -1.740000000
O     2.009000000    -4.317000000    -2.481000000
C     0.660000000    -3.975000000    -2.162000000
H     0.601000000    -3.059000000    -1.556000000
C    -0.265000000    -3.699000000    -3.364000000
C    -1.654000000    -3.384000000    -3.145000000
H    -2.080000000    -3.411000000    -2.145000000
C     0.302000000    -3.438000000    -4.623000000
H     1.350000000    -3.597000000    -4.864000000
C    -0.544000000    -2.897000000    -5.632000000
O    -0.006000000    -2.529000000    -6.817000000
C    -1.862000000    -2.795000000    -5.477000000
H    -2.432000000    -2.481000000    -6.348000000
C    -2.467000000    -3.018000000    -4.234000000
O    -3.759000000    -2.538000000    -4.041000000
C    -4.628000000    -3.150000000    -3.141000000
C    -5.309000000    -2.427000000    -2.151000000
H    -5.020000000    -1.381000000    -2.079000000
C    -4.830000000    -4.570000000    -3.203000000
H    -4.343000000    -5.106000000    -4.013000000
C    -5.598000000    -5.206000000    -2.253000000
H    -5.611000000    -6.289000000    -2.159000000
C    -6.138000000    -4.493000000    -1.169000000
H    -6.504000000    -5.059000000    -0.316000000
C    -6.020000000    -3.087000000    -1.176000000
O    -6.621000000    -2.363000000    -0.135000000
C    -5.835000000    -1.664000000     0.716000000
C    -6.052000000    -0.292000000     0.911000000
H    -6.800000000     0.249000000     0.337000000
C    -5.249000000     0.440000000     1.736000000
O    -5.372000000     1.787000000     1.640000000
C    -5.262000000     2.644000000     2.735000000
C    -4.307000000     3.612000000     2.809000000
H    -3.594000000     3.719000000     1.995000000
C    -6.268000000     2.633000000     3.687000000
H    -7.122000000     1.979000000     3.532000000
C    -6.254000000     3.529000000     4.772000000
H    -7.071000000     3.625000000     5.482000000
C    -5.166000000     4.375000000     4.900000000
H    -5.101000000     5.055000000     5.745000000
C    -4.181000000     4.464000000     3.909000000
O    -3.247000000     5.574000000     3.977000000
C    -1.883000000     5.459000000     3.608000000
C    -1.213000000     6.611000000     3.126000000
H    -1.768000000     7.545000000     3.102000000
C     0.020000000     6.414000000     2.426000000
O     0.567000000     7.330000000     1.503000000
C     1.396000000     6.971000000     0.447000000
C     0.939000000     6.197000000    -0.625000000
H    -0.135000000     6.028000000    -0.657000000
C     2.723000000     7.425000000     0.438000000
H     3.087000000     7.964000000     1.309000000
C     3.629000000     6.840000000    -0.426000000
H     4.651000000     7.180000000    -0.279000000
C     3.227000000     6.020000000    -1.451000000
H     3.852000000     5.623000000    -2.247000000
C     1.848000000     5.716000000    -1.555000000
O     1.434000000     4.998000000    -2.637000000
C     2.022000000     3.799000000    -3.111000000
C     1.963000000     3.365000000    -4.461000000
H     1.541000000     3.978000000    -5.253000000
C     2.377000000     2.087000000    -4.877000000
O     2.176000000     1.648000000    -6.174000000
C     2.188000000     0.331000000    -6.675000000
C     3.325000000    -0.236000000    -7.156000000
H     4.178000000     0.437000000    -7.173000000
C     3.483000000    -1.553000000    -7.400000000
H     4.428000000    -2.004000000    -7.693000000
C     2.369000000    -2.369000000    -7.239000000
H     2.572000000    -3.425000000    -7.396000000
C     1.161000000    -1.811000000    -6.920000000
C     1.037000000    -0.429000000    -6.609000000
H     0.100000000    -0.066000000    -6.192000000
C    -0.725000000     2.159000000    -0.580000000
H    -0.530000000     3.186000000    -0.880000000
C     0.300000000     1.321000000    -0.132000000
H     1.229000000     1.861000000     0.033000000
C     0.129000000    -0.054000000     0.021000000
H     0.986000000    -0.619000000     0.418000000
C    -1.100000000    -0.586000000    -0.245000000
H    -1.177000000    -1.631000000     0.047000000
C    -2.150000000     0.216000000    -0.740000000
H    -3.128000000    -0.240000000    -0.871000000
C    -1.941000000     1.564000000    -0.928000000
C    -3.031000000     2.379000000    -1.597000000
O    -3.762000000     1.791000000    -2.354000000
O    -2.882000000     3.544000000    -1.914000000
O    -6.784000000     7.127000000    -2.496000000
H    -6.707000000     7.833000000    -1.854000000
H    -7.577000000     6.657000000    -2.241000000
O    -0.711000000     2.779000000    -6.613000000
H     0.057000000     2.272000000    -6.876000000
H    -1.068000000     2.302000000    -5.864000000
O    -1.553000000     5.590000000    -5.945000000
H    -2.395000000     5.731000000    -6.377000000
H    -1.369000000     4.660000000    -6.076000000
O    -7.857000000     4.873000000     0.971000000
H    -8.150000000     4.332000000     0.237000000
H    -6.914000000     4.968000000     0.837000000
O    -2.880000000     6.162000000    -3.036000000
H    -3.075000000     5.339000000    -2.588000000
H    -2.290000000     5.914000000    -3.748000000
O    -3.395000000     8.414000000    -1.400000000
H    -3.333000000     7.725000000    -2.062000000
H    -4.013000000     8.072000000    -0.755000000
O    -4.958000000    -0.027000000    -5.255000000
H    -4.629000000    -0.925000000    -5.222000000
H    -4.294000000     0.454000000    -5.748000000
O    -1.269000000     1.710000000    -4.175000000
H    -2.105000000     1.265000000    -4.038000000
H    -1.277000000     2.433000000    -3.547000000
O    -8.562000000     2.787000000    -0.615000000
H    -7.905000000     2.321000000    -1.134000000
H    -9.354000000     2.759000000    -1.152000000
O    -6.330000000     1.705000000    -1.983000000
H    -5.382000000     1.701000000    -2.113000000
H    -6.670000000     1.148000000    -2.684000000
O    -0.650000000     8.222000000    -2.423000000
H    -0.570000000     7.321000000    -2.738000000
H    -1.588000000     8.344000000    -2.281000000
O    -4.791000000     7.598000000    -4.631000000
H    -4.213000000     6.835000000    -4.637000000
H    -5.504000000     7.354000000    -4.040000000
O    -7.970000000     3.392000000    -3.703000000
H    -8.047000000     3.850000000    -4.540000000
H    -7.812000000     2.479000000    -3.943000000
O    -4.882000000     3.608000000    -4.171000000
H    -5.728000000     3.428000000    -3.759000000
H    -4.251000000     3.113000000    -3.648000000
O    -9.058000000     5.624000000    -2.456000000
H    -9.843000000     5.307000000    -2.902000000
H    -8.406000000     4.939000000    -2.603000000
O    -5.189000000     4.206000000    -0.417000000
H    -4.507000000     4.004000000    -1.058000000
H    -5.745000000     3.427000000    -0.405000000
O    -4.529000000     3.653000000    -6.799000000
H    -5.366000000     3.452000000    -7.217000000
H    -4.751000000     3.807000000    -5.881000000
O    -5.132000000     6.930000000     0.299000000
H    -6.087000000     6.991000000     0.289000000
H    -4.946000000     6.034000000     0.018000000
O    -7.285000000     0.338000000    -4.120000000
H    -7.843000000    -0.278000000    -4.595000000
H    -6.410000000     0.197000000    -4.483000000
