215
-1437.56351
C    -3.961000000    -1.276000000     3.504000000
H    -3.744000000    -0.936000000     4.514000000
C    -3.064000000    -2.137000000     2.814000000
C    -3.422000000    -2.650000000     1.556000000
H    -2.686000000    -3.255000000     1.033000000
C    -1.648000000    -2.391000000     3.382000000
O    -1.316000000    -1.843000000     4.643000000
H    -1.092000000    -1.832000000     2.615000000
O    -1.154000000    -3.689000000     3.297000000
C     0.104000000    -3.960000000     2.742000000
C     0.135000000    -4.321000000     1.385000000
H    -0.805000000    -4.542000000     0.885000000
C     1.264000000    -4.313000000     0.626000000
O     1.051000000    -4.671000000    -0.697000000
C     2.454000000    -3.924000000     1.252000000
C     3.771000000    -3.869000000     0.497000000
H     4.574000000    -4.083000000     1.204000000
C     3.995000000    -2.610000000    -0.428000000
C     4.719000000    -1.625000000     0.048000000
H     5.177000000    -1.647000000     1.034000000
H     3.691000000    -4.742000000    -0.154000000
C     2.460000000    -3.456000000     2.549000000
H     3.438000000    -3.118000000     2.883000000
C     1.320000000    -3.473000000     3.347000000
C     1.348000000    -2.980000000     4.726000000
H     2.353000000    -3.143000000     5.121000000
H     0.672000000    -3.615000000     5.302000000
C     1.112000000    -1.431000000     4.733000000
C     2.179000000    -0.558000000     4.596000000
H     3.201000000    -0.915000000     4.693000000
C    -0.212000000    -0.968000000     4.575000000
C    -0.447000000     0.387000000     4.366000000
H    -1.461000000     0.778000000     4.402000000
C     0.619000000     1.238000000     4.374000000
O     0.276000000     2.524000000     4.268000000
C     0.469000000     3.088000000     2.965000000
C    -0.721000000     3.966000000     2.511000000
C    -0.553000000     4.968000000     1.547000000
H     0.397000000     5.120000000     1.041000000
C    -1.981000000     3.702000000     2.974000000
H    -2.225000000     2.858000000     3.614000000
O     1.743000000     3.727000000     2.811000000
H     0.400000000     2.303000000     2.196000000
C     1.962000000     0.783000000     4.395000000
C     3.186000000     1.708000000     4.311000000
H     4.026000000     1.297000000     4.874000000
H     2.938000000     2.684000000     4.733000000
C     3.483000000     2.092000000     2.771000000
C     4.386000000     1.305000000     2.001000000
H     4.930000000     0.508000000     2.500000000
C     2.745000000     3.096000000     2.135000000
C     2.994000000     3.438000000     0.775000000
H     2.340000000     4.152000000     0.281000000
C     3.965000000     2.759000000     0.091000000
O     4.043000000     2.915000000    -1.287000000
C     3.447000000     1.867000000    -2.141000000
C     2.680000000     2.490000000    -3.384000000
C     2.011000000     3.736000000    -3.162000000
H     2.151000000     4.195000000    -2.187000000
C     2.481000000     1.780000000    -4.546000000
H     2.946000000     0.799000000    -4.589000000
O     4.432000000     0.893000000    -2.650000000
H     2.696000000     1.309000000    -1.562000000
C     4.627000000     1.610000000     0.644000000
C     5.664000000     0.748000000    -0.066000000
H     6.439000000     0.455000000     0.645000000
H     6.240000000     1.250000000    -0.846000000
C     4.909000000    -0.485000000    -0.675000000
C     4.289000000    -0.311000000    -1.951000000
C     3.517000000    -1.338000000    -2.411000000
H     3.017000000    -1.210000000    -3.367000000
C     3.377000000    -2.493000000    -1.692000000
O     2.553000000    -3.494000000    -2.100000000
C     1.129000000    -3.562000000    -1.641000000
H     0.909000000    -2.586000000    -1.183000000
C     0.135000000    -3.829000000    -2.790000000
C    -0.883000000    -4.806000000    -2.638000000
H    -1.094000000    -5.243000000    -1.666000000
C     0.238000000    -3.280000000    -4.065000000
H     1.110000000    -2.681000000    -4.318000000
C    -0.724000000    -3.469000000    -5.037000000
O    -0.519000000    -2.937000000    -6.323000000
C    -1.788000000    -4.376000000    -4.796000000
H    -2.568000000    -4.626000000    -5.511000000
C    -1.869000000    -5.058000000    -3.615000000
O    -2.965000000    -5.866000000    -3.340000000
C    -3.643000000    -5.732000000    -2.132000000
C    -4.002000000    -4.479000000    -1.683000000
H    -3.793000000    -3.565000000    -2.233000000
C    -3.980000000    -6.870000000    -1.439000000
H    -3.728000000    -7.849000000    -1.839000000
C    -4.727000000    -6.740000000    -0.214000000
H    -5.026000000    -7.667000000     0.269000000
C    -5.039000000    -5.504000000     0.288000000
H    -5.592000000    -5.418000000     1.220000000
C    -4.673000000    -4.364000000    -0.498000000
O    -5.073000000    -3.085000000    -0.132000000
C    -4.649000000    -2.443000000     1.021000000
C    -5.497000000    -1.513000000     1.651000000
H    -6.372000000    -1.200000000     1.088000000
C    -5.167000000    -0.908000000     2.850000000
O    -6.072000000    -0.095000000     3.406000000
C    -5.844000000     1.074000000     4.063000000
C    -5.213000000     2.146000000     3.334000000
H    -4.933000000     1.939000000     2.304000000
C    -6.207000000     1.289000000     5.397000000
H    -6.726000000     0.439000000     5.833000000
C    -5.793000000     2.427000000     6.066000000
H    -5.979000000     2.463000000     7.137000000
C    -5.199000000     3.461000000     5.295000000
H    -4.954000000     4.440000000     5.699000000
C    -4.891000000     3.318000000     3.969000000
O    -4.400000000     4.333000000     3.161000000
C    -3.136000000     4.470000000     2.551000000
C    -2.941000000     5.485000000     1.590000000
H    -3.795000000     6.094000000     1.305000000
C    -1.700000000     5.702000000     1.102000000
O    -1.547000000     6.646000000     0.147000000
C    -0.518000000     6.750000000    -0.737000000
C    -0.597000000     6.063000000    -1.963000000
H    -1.480000000     5.443000000    -2.096000000
C     0.516000000     7.680000000    -0.542000000
H     0.523000000     8.328000000     0.330000000
C     1.537000000     7.770000000    -1.459000000
H     2.352000000     8.485000000    -1.382000000
C     1.457000000     6.966000000    -2.637000000
H     2.163000000     6.957000000    -3.464000000
C     0.421000000     6.205000000    -2.876000000
O     0.482000000     5.386000000    -3.986000000
C     1.143000000     4.225000000    -4.159000000
C     0.895000000     3.461000000    -5.321000000
H     0.189000000     3.791000000    -6.078000000
C     1.519000000     2.258000000    -5.507000000
O     1.189000000     1.564000000    -6.659000000
C     1.330000000     0.176000000    -6.861000000
C     2.345000000    -0.264000000    -7.685000000
H     3.085000000     0.423000000    -8.086000000
C     2.556000000    -1.633000000    -7.693000000
H     3.407000000    -2.000000000    -8.261000000
C     1.650000000    -2.536000000    -7.187000000
H     1.812000000    -3.608000000    -7.264000000
C     0.470000000    -2.048000000    -6.676000000
C     0.372000000    -0.713000000    -6.367000000
H    -0.521000000    -0.323000000    -5.884000000
C    -0.669000000     1.490000000    -1.454000000
H    -0.950000000     2.366000000    -2.032000000
C     0.214000000     1.631000000    -0.401000000
H     0.662000000     2.602000000    -0.206000000
C     0.448000000     0.495000000     0.404000000
H     1.148000000     0.532000000     1.162000000
C    -0.197000000    -0.676000000     0.132000000
H     0.063000000    -1.438000000     0.862000000
C    -1.060000000    -0.846000000    -0.895000000
H    -1.616000000    -1.774000000    -1.006000000
C    -1.378000000     0.271000000    -1.688000000
C    -2.410000000     0.335000000    -2.760000000
O    -3.204000000    -0.612000000    -2.983000000
O    -2.394000000     1.319000000    -3.505000000
O    -5.420000000    -4.587000000    -4.442000000
H    -6.084000000    -5.227000000    -4.183000000
H    -4.714000000    -5.114000000    -4.816000000
O    -3.601000000     7.067000000    -2.255000000
H    -3.375000000     6.249000000    -1.812000000
H    -3.823000000     7.670000000    -1.545000000
O    -1.906000000     2.012000000    -8.928000000
H    -2.696000000     1.537000000    -9.186000000
H    -1.950000000     2.050000000    -7.973000000
O    -5.332000000     2.983000000    -6.187000000
H    -4.907000000     2.193000000    -5.854000000
H    -4.682000000     3.675000000    -6.063000000
O    -8.576000000    -2.278000000    -3.860000000
H    -7.736000000    -2.141000000    -3.423000000
H    -8.511000000    -1.769000000    -4.669000000
O    -3.944000000    -0.157000000    -7.751000000
H    -4.017000000     0.284000000    -6.904000000
H    -3.831000000    -1.082000000    -7.531000000
O    -8.106000000    -2.378000000    -0.988000000
H    -8.879000000    -1.817000000    -1.051000000
H    -8.061000000    -2.622000000    -0.063000000
O    -5.537000000    -3.344000000    -6.928000000
H    -6.442000000    -3.647000000    -7.002000000
H    -5.398000000    -3.231000000    -5.988000000
O    -6.799000000     1.357000000    -2.745000000
H    -7.680000000     0.984000000    -2.706000000
H    -6.355000000     1.003000000    -1.974000000
O    -5.472000000    -1.889000000    -3.560000000
H    -4.564000000    -1.606000000    -3.448000000
H    -5.420000000    -2.842000000    -3.625000000
O    -1.789000000     2.052000000    -6.256000000
H    -0.846000000     1.901000000    -6.321000000
H    -1.979000000     1.978000000    -5.320000000
O    -5.142000000    -0.012000000    -1.046000000
H    -4.381000000    -0.043000000    -1.626000000
H    -5.483000000    -0.906000000    -1.051000000
O    -3.195000000     2.105000000     0.470000000
H    -3.787000000     1.352000000     0.483000000
H    -2.330000000     1.732000000     0.644000000
O    -8.190000000     0.986000000    -5.414000000
H    -7.274000000     0.915000000    -5.147000000
H    -8.165000000     0.938000000    -6.370000000
O    -4.582000000     0.566000000    -4.952000000
H    -5.172000000    -0.078000000    -4.561000000
H    -3.855000000     0.631000000    -4.332000000
O    -2.390000000     4.958000000    -6.989000000
H    -1.695000000     5.468000000    -6.574000000
H    -2.184000000     4.049000000    -6.769000000
O    -3.398000000     3.568000000    -2.191000000
H    -3.414000000     3.072000000    -1.373000000
H    -2.995000000     2.973000000    -2.824000000
O    -6.291000000     3.315000000     0.636000000
H    -6.643000000     4.127000000     0.272000000
H    -5.346000000     3.461000000     0.677000000
O    -5.913000000     4.098000000    -2.824000000
H    -6.125000000     3.172000000    -2.940000000
H    -4.982000000     4.105000000    -2.602000000
