215
-1480.48800
C    -4.020000000    -0.800000000     3.082000000
H    -3.584000000    -0.097000000     3.787000000
C    -3.309000000    -1.954000000     2.561000000
C    -3.768000000    -2.632000000     1.453000000
H    -3.285000000    -3.464000000     0.947000000
C    -1.896000000    -2.197000000     2.987000000
O    -1.674000000    -1.593000000     4.296000000
H    -1.192000000    -1.751000000     2.269000000
O    -1.478000000    -3.624000000     2.961000000
C    -0.219000000    -3.907000000     2.487000000
C    -0.211000000    -4.441000000     1.227000000
H    -1.148000000    -4.605000000     0.700000000
C     0.943000000    -4.606000000     0.518000000
O     0.945000000    -5.042000000    -0.866000000
C     2.169000000    -4.341000000     1.116000000
C     3.433000000    -4.459000000     0.377000000
H     4.322000000    -4.733000000     0.950000000
C     3.683000000    -3.126000000    -0.404000000
C     4.430000000    -2.101000000     0.246000000
H     4.627000000    -2.193000000     1.311000000
H     3.317000000    -5.339000000    -0.260000000
C     2.113000000    -3.867000000     2.444000000
H     3.093000000    -3.678000000     2.876000000
C     0.939000000    -3.606000000     3.168000000
C     0.890000000    -3.005000000     4.528000000
H     1.759000000    -3.273000000     5.133000000
H    -0.012000000    -3.343000000     5.042000000
C     0.784000000    -1.489000000     4.453000000
C     1.909000000    -0.652000000     4.446000000
H     2.926000000    -1.037000000     4.437000000
C    -0.518000000    -0.886000000     4.413000000
C    -0.680000000     0.479000000     4.365000000
H    -1.670000000     0.928000000     4.327000000
C     0.440000000     1.265000000     4.296000000
O     0.253000000     2.583000000     4.135000000
C     0.555000000     3.151000000     2.840000000
C    -0.432000000     4.301000000     2.507000000
C    -0.327000000     5.002000000     1.276000000
H     0.633000000     4.937000000     0.772000000
C    -1.715000000     4.366000000     3.163000000
H    -1.883000000     3.937000000     4.147000000
O     1.894000000     3.684000000     2.850000000
H     0.498000000     2.407000000     2.033000000
C     1.746000000     0.737000000     4.411000000
C     3.009000000     1.596000000     4.446000000
H     3.805000000     1.082000000     4.990000000
H     2.909000000     2.459000000     5.108000000
C     3.489000000     1.893000000     3.051000000
C     4.431000000     1.058000000     2.386000000
H     4.868000000     0.195000000     2.881000000
C     2.908000000     2.964000000     2.362000000
C     3.281000000     3.214000000     1.057000000
H     2.890000000     4.100000000     0.563000000
C     4.076000000     2.283000000     0.377000000
O     4.271000000     2.463000000    -0.975000000
C     3.552000000     1.557000000    -1.912000000
C     2.770000000     2.229000000    -3.036000000
C     2.678000000     3.644000000    -3.087000000
H     3.270000000     4.170000000    -2.344000000
C     2.119000000     1.549000000    -4.067000000
H     2.113000000     0.462000000    -4.054000000
O     4.340000000     0.470000000    -2.399000000
H     2.841000000     1.067000000    -1.230000000
C     4.634000000     1.230000000     1.018000000
C     5.459000000     0.253000000     0.285000000
H     6.115000000    -0.256000000     0.994000000
H     6.128000000     0.743000000    -0.425000000
C     4.675000000    -0.854000000    -0.391000000
C     4.197000000    -0.720000000    -1.696000000
C     3.497000000    -1.707000000    -2.359000000
H     3.114000000    -1.507000000    -3.357000000
C     3.239000000    -2.922000000    -1.741000000
O     2.413000000    -3.862000000    -2.332000000
C     1.041000000    -3.943000000    -1.847000000
H     0.700000000    -3.107000000    -1.218000000
C     0.036000000    -4.177000000    -2.955000000
C    -1.033000000    -5.107000000    -2.896000000
H    -1.157000000    -5.686000000    -1.985000000
C     0.066000000    -3.304000000    -4.025000000
H     0.801000000    -2.503000000    -4.019000000
C    -0.863000000    -3.508000000    -5.085000000
O    -0.654000000    -2.825000000    -6.249000000
C    -1.971000000    -4.350000000    -4.934000000
H    -2.800000000    -4.418000000    -5.633000000
C    -1.999000000    -5.127000000    -3.793000000
O    -3.182000000    -5.832000000    -3.555000000
C    -3.825000000    -5.640000000    -2.313000000
C    -4.057000000    -4.368000000    -1.856000000
H    -3.561000000    -3.591000000    -2.432000000
C    -4.502000000    -6.753000000    -1.811000000
H    -4.444000000    -7.756000000    -2.227000000
C    -5.425000000    -6.489000000    -0.788000000
H    -5.979000000    -7.337000000    -0.393000000
C    -5.671000000    -5.181000000    -0.327000000
H    -6.399000000    -4.997000000     0.458000000
C    -4.971000000    -4.085000000    -0.854000000
O    -5.305000000    -2.805000000    -0.402000000
C    -4.947000000    -2.224000000     0.798000000
C    -5.605000000    -1.082000000     1.234000000
H    -6.453000000    -0.716000000     0.661000000
C    -5.171000000    -0.369000000     2.398000000
O    -5.999000000     0.600000000     2.909000000
C    -5.581000000     1.626000000     3.720000000
C    -4.897000000     2.686000000     3.091000000
H    -4.789000000     2.639000000     2.010000000
C    -5.916000000     1.699000000     5.065000000
H    -6.443000000     0.844000000     5.481000000
C    -5.427000000     2.793000000     5.860000000
H    -5.610000000     2.661000000     6.923000000
C    -4.923000000     3.908000000     5.238000000
H    -4.620000000     4.733000000     5.877000000
C    -4.518000000     3.834000000     3.861000000
O    -4.024000000     4.940000000     3.241000000
C    -2.801000000     5.009000000     2.575000000
C    -2.679000000     5.699000000     1.412000000
H    -3.588000000     6.086000000     0.960000000
C    -1.371000000     5.766000000     0.817000000
O    -1.213000000     6.415000000    -0.345000000
C     0.003000000     6.694000000    -0.925000000
C     0.287000000     6.205000000    -2.213000000
H    -0.405000000     5.644000000    -2.835000000
C     0.920000000     7.530000000    -0.314000000
H     0.654000000     7.974000000     0.642000000
C     2.190000000     7.766000000    -0.896000000
H     2.912000000     8.381000000    -0.365000000
C     2.543000000     7.077000000    -2.041000000
H     3.552000000     7.221000000    -2.417000000
C     1.567000000     6.275000000    -2.684000000
O     1.822000000     5.700000000    -3.906000000
C     1.927000000     4.345000000    -3.979000000
C     1.354000000     3.624000000    -5.033000000
H     0.622000000     4.045000000    -5.718000000
C     1.520000000     2.230000000    -5.105000000
O     0.950000000     1.624000000    -6.181000000
C     1.243000000     0.299000000    -6.439000000
C     2.508000000    -0.158000000    -6.770000000
H     3.365000000     0.472000000    -6.992000000
C     2.691000000    -1.518000000    -7.000000000
H     3.645000000    -1.940000000    -7.305000000
C     1.675000000    -2.491000000    -6.737000000
H     1.854000000    -3.558000000    -6.848000000
C     0.397000000    -1.983000000    -6.413000000
C     0.222000000    -0.654000000    -6.238000000
H    -0.730000000    -0.278000000    -5.871000000
C    -0.348000000     1.144000000    -1.473000000
H    -0.459000000     1.908000000    -2.238000000
C     0.584000000     1.344000000    -0.378000000
H     1.114000000     2.275000000    -0.197000000
C     0.828000000     0.246000000     0.420000000
H     1.496000000     0.302000000     1.298000000
C     0.167000000    -0.918000000     0.276000000
H     0.360000000    -1.693000000     1.014000000
C    -0.817000000    -1.115000000    -0.784000000
H    -1.261000000    -2.093000000    -0.950000000
C    -1.061000000    -0.027000000    -1.613000000
C    -2.098000000    -0.171000000    -2.757000000
O    -2.985000000    -1.018000000    -2.679000000
O    -2.192000000     0.661000000    -3.594000000
O    -3.152000000     5.587000000    -3.025000000
H    -2.999000000     4.721000000    -2.647000000
H    -3.299000000     6.156000000    -2.269000000
O    -2.096000000    -0.676000000    -8.720000000
H    -1.987000000     0.142000000    -9.206000000
H    -2.572000000    -0.423000000    -7.929000000
O    -5.226000000     2.228000000    -5.371000000
H    -4.300000000     2.076000000    -5.179000000
H    -5.464000000     1.525000000    -5.975000000
O    -7.361000000    -3.235000000    -4.318000000
H    -6.446000000    -3.164000000    -4.048000000
H    -7.765000000    -3.789000000    -3.650000000
O    -6.402000000     4.895000000    -5.866000000
H    -5.736000000     5.234000000    -6.464000000
H    -6.009000000     4.107000000    -5.490000000
O    -7.089000000    -0.576000000    -2.846000000
H    -7.503000000    -1.385000000    -3.148000000
H    -7.473000000    -0.418000000    -1.984000000
O    -6.977000000     5.060000000    -2.019000000
H    -7.232000000     4.650000000    -2.845000000
H    -6.373000000     4.436000000    -1.618000000
O    -4.828000000    -1.630000000    -4.563000000
H    -5.602000000    -1.105000000    -4.359000000
H    -4.234000000    -1.478000000    -3.828000000
O    -2.407000000     2.744000000    -5.447000000
H    -1.946000000     3.522000000    -5.132000000
H    -2.073000000     2.031000000    -4.903000000
O    -1.627000000     5.499000000    -5.362000000
H    -1.338000000     6.409000000    -5.426000000
H    -2.367000000     5.525000000    -4.756000000
O    -4.927000000     0.554000000    -1.428000000
H    -4.081000000     0.216000000    -1.720000000
H    -5.570000000     0.065000000    -1.943000000
O    -2.792000000     1.567000000     0.602000000
H    -1.892000000     1.272000000     0.461000000
H    -3.333000000     0.832000000     0.312000000
O    -3.263000000    -0.163000000    -6.256000000
H    -3.902000000    -0.820000000    -5.981000000
H    -2.724000000    -0.013000000    -5.479000000
O    -3.721000000     3.158000000    -8.288000000
H    -3.042000000     3.053000000    -8.954000000
H    -3.380000000     2.695000000    -7.523000000
O    -3.224000000    -3.745000000    -8.175000000
H    -2.706000000    -2.939000000    -8.179000000
H    -2.585000000    -4.440000000    -8.334000000
O    -0.391000000     1.947000000    -8.867000000
H     0.363000000     1.874000000    -9.451000000
H    -0.010000000     2.048000000    -7.994000000
O    -2.847000000     3.379000000    -1.604000000
H    -2.704000000     2.955000000    -0.758000000
H    -2.546000000     2.737000000    -2.247000000
O    -5.440000000     3.242000000    -0.601000000
H    -4.583000000     3.657000000    -0.703000000
H    -5.257000000     2.303000000    -0.636000000
O    -7.095000000     2.724000000    -3.504000000
H    -6.403000000     2.626000000    -4.158000000
H    -6.631000000     2.753000000    -2.667000000
