215
-1459.55894
C    -3.684000000    -1.103000000     3.584000000
H    -3.260000000    -0.299000000     4.180000000
C    -2.984000000    -2.115000000     2.952000000
C    -3.573000000    -2.931000000     1.944000000
H    -2.889000000    -3.621000000     1.457000000
C    -1.436000000    -2.340000000     3.190000000
O    -1.079000000    -1.826000000     4.466000000
H    -0.994000000    -1.663000000     2.444000000
O    -0.915000000    -3.669000000     2.915000000
C     0.274000000    -3.744000000     2.248000000
C     0.243000000    -4.296000000     1.027000000
H    -0.717000000    -4.385000000     0.524000000
C     1.402000000    -4.480000000     0.265000000
O     1.234000000    -4.819000000    -1.087000000
C     2.706000000    -4.184000000     0.784000000
C     3.905000000    -4.193000000    -0.120000000
H     4.828000000    -4.371000000     0.437000000
C     3.992000000    -2.852000000    -0.851000000
C     4.668000000    -1.812000000    -0.284000000
H     5.159000000    -1.924000000     0.680000000
H     3.830000000    -5.001000000    -0.851000000
C     2.708000000    -3.719000000     2.100000000
H     3.683000000    -3.392000000     2.453000000
C     1.511000000    -3.520000000     2.850000000
C     1.578000000    -3.031000000     4.302000000
H     2.626000000    -3.242000000     4.525000000
H     0.809000000    -3.491000000     4.926000000
C     1.415000000    -1.543000000     4.349000000
C     2.547000000    -0.694000000     4.285000000
H     3.546000000    -1.079000000     4.092000000
C     0.097000000    -1.064000000     4.472000000
C    -0.099000000     0.274000000     4.535000000
H    -1.098000000     0.630000000     4.772000000
C     0.963000000     1.167000000     4.388000000
O     0.613000000     2.498000000     4.233000000
C     0.637000000     3.030000000     2.924000000
C    -0.587000000     3.975000000     2.704000000
C    -0.652000000     4.761000000     1.584000000
H     0.214000000     4.827000000     0.930000000
C    -1.762000000     3.696000000     3.456000000
H    -1.755000000     2.940000000     4.237000000
O     1.832000000     3.822000000     2.786000000
H     0.628000000     2.194000000     2.209000000
C     2.281000000     0.691000000     4.220000000
C     3.426000000     1.639000000     4.191000000
H     4.353000000     1.296000000     4.655000000
H     3.187000000     2.506000000     4.810000000
C     3.677000000     2.087000000     2.781000000
C     4.631000000     1.404000000     2.033000000
H     5.144000000     0.569000000     2.503000000
C     2.947000000     3.195000000     2.200000000
C     3.165000000     3.425000000     0.862000000
H     2.491000000     4.104000000     0.347000000
C     3.989000000     2.576000000     0.094000000
O     3.790000000     2.696000000    -1.253000000
C     3.145000000     1.770000000    -2.036000000
C     2.355000000     2.507000000    -3.053000000
C     1.919000000     3.818000000    -2.949000000
H     2.309000000     4.477000000    -2.178000000
C     1.756000000     1.674000000    -4.042000000
H     1.896000000     0.602000000    -4.162000000
O     4.039000000     0.854000000    -2.695000000
H     2.395000000     1.215000000    -1.454000000
C     4.719000000     1.513000000     0.651000000
C     5.532000000     0.579000000    -0.232000000
H     6.386000000     0.231000000     0.352000000
H     5.927000000     1.150000000    -1.075000000
C     4.717000000    -0.539000000    -0.882000000
C     4.172000000    -0.421000000    -2.138000000
C     3.457000000    -1.478000000    -2.715000000
H     3.003000000    -1.416000000    -3.701000000
C     3.342000000    -2.682000000    -2.060000000
O     2.531000000    -3.674000000    -2.613000000
C     1.238000000    -3.761000000    -2.033000000
H     1.071000000    -2.793000000    -1.538000000
C     0.174000000    -3.849000000    -3.141000000
C    -1.079000000    -4.298000000    -2.845000000
H    -1.276000000    -4.678000000    -1.845000000
C     0.488000000    -3.588000000    -4.475000000
H     1.463000000    -3.248000000    -4.816000000
C    -0.538000000    -3.570000000    -5.423000000
O    -0.209000000    -3.136000000    -6.747000000
C    -1.825000000    -3.898000000    -5.121000000
H    -2.596000000    -3.879000000    -5.886000000
C    -2.141000000    -4.303000000    -3.825000000
O    -3.386000000    -4.929000000    -3.487000000
C    -3.884000000    -5.207000000    -2.231000000
C    -4.286000000    -4.146000000    -1.433000000
H    -4.091000000    -3.111000000    -1.700000000
C    -4.135000000    -6.509000000    -1.755000000
H    -3.672000000    -7.302000000    -2.335000000
C    -4.794000000    -6.792000000    -0.563000000
H    -5.036000000    -7.820000000    -0.307000000
C    -5.139000000    -5.690000000     0.240000000
H    -5.622000000    -5.869000000     1.197000000
C    -4.904000000    -4.367000000    -0.163000000
O    -5.497000000    -3.378000000     0.536000000
C    -4.921000000    -2.774000000     1.648000000
C    -5.656000000    -1.769000000     2.293000000
H    -6.724000000    -1.675000000     2.114000000
C    -5.031000000    -1.002000000     3.216000000
O    -5.823000000    -0.125000000     3.833000000
C    -5.505000000     1.035000000     4.534000000
C    -4.820000000     2.049000000     3.877000000
H    -4.556000000     1.925000000     2.830000000
C    -5.976000000     1.162000000     5.831000000
H    -6.472000000     0.293000000     6.256000000
C    -5.689000000     2.269000000     6.547000000
H    -5.892000000     2.361000000     7.611000000
C    -5.059000000     3.361000000     5.857000000
H    -4.864000000     4.288000000     6.391000000
C    -4.584000000     3.215000000     4.555000000
O    -4.121000000     4.319000000     3.933000000
C    -2.988000000     4.285000000     3.096000000
C    -2.986000000     5.159000000     2.029000000
H    -3.881000000     5.739000000     1.819000000
C    -1.806000000     5.429000000     1.234000000
O    -1.871000000     6.142000000     0.066000000
C    -0.796000000     6.526000000    -0.697000000
C    -0.635000000     6.057000000    -1.971000000
H    -1.380000000     5.381000000    -2.382000000
C     0.166000000     7.388000000    -0.151000000
H    -0.009000000     7.884000000     0.801000000
C     1.327000000     7.719000000    -0.808000000
H     2.045000000     8.444000000    -0.432000000
C     1.491000000     7.233000000    -2.116000000
H     2.368000000     7.467000000    -2.714000000
C     0.556000000     6.401000000    -2.717000000
O     0.846000000     5.804000000    -3.921000000
C     1.187000000     4.412000000    -3.983000000
C     0.730000000     3.665000000    -5.036000000
H     0.114000000     3.894000000    -5.901000000
C     0.996000000     2.280000000    -4.997000000
O     0.436000000     1.641000000    -6.104000000
C     0.703000000     0.452000000    -6.683000000
C     1.790000000     0.429000000    -7.588000000
H     2.467000000     1.221000000    -7.898000000
C     2.125000000    -0.776000000    -8.131000000
H     2.989000000    -0.822000000    -8.788000000
C     1.388000000    -1.919000000    -7.866000000
H     1.636000000    -2.879000000    -8.312000000
C     0.353000000    -1.892000000    -7.000000000
C    -0.030000000    -0.698000000    -6.376000000
H    -0.739000000    -0.635000000    -5.555000000
C    -1.328000000     1.653000000    -0.835000000
H    -1.900000000     2.577000000    -0.862000000
C    -0.081000000     1.738000000    -0.228000000
H     0.362000000     2.709000000    -0.021000000
C     0.526000000     0.566000000     0.280000000
H     1.552000000     0.591000000     0.741000000
C    -0.146000000    -0.712000000     0.151000000
H     0.406000000    -1.612000000     0.408000000
C    -1.300000000    -0.810000000    -0.581000000
H    -1.830000000    -1.741000000    -0.765000000
C    -1.920000000     0.383000000    -1.087000000
C    -3.146000000     0.455000000    -1.919000000
O    -3.567000000    -0.566000000    -2.402000000
O    -3.769000000     1.521000000    -1.969000000
O    -5.290000000    -4.743000000    -5.675000000
H    -5.898000000    -4.874000000    -4.948000000
H    -4.636000000    -5.434000000    -5.568000000
O    -3.917000000     6.579000000    -2.858000000
H    -4.722000000     6.996000000    -3.165000000
H    -4.208000000     5.752000000    -2.473000000
O    -3.633000000     1.662000000    -7.356000000
H    -3.267000000     2.547000000    -7.362000000
H    -3.661000000     1.420000000    -6.431000000
O    -6.107000000     4.082000000    -5.923000000
H    -6.255000000     4.535000000    -5.094000000
H    -5.366000000     3.500000000    -5.750000000
O    -4.386000000    -1.173000000    -7.163000000
H    -3.727000000    -0.511000000    -7.370000000
H    -4.220000000    -1.398000000    -6.248000000
O    -7.746000000    -2.864000000    -1.082000000
H    -7.499000000    -3.442000000    -0.360000000
H    -8.376000000    -2.255000000    -0.697000000
O    -7.653000000     2.178000000    -2.273000000
H    -8.327000000     1.560000000    -2.555000000
H    -7.050000000     1.652000000    -1.748000000
O    -3.601000000    -1.675000000    -4.644000000
H    -3.501000000    -1.177000000    -3.832000000
H    -3.886000000    -2.543000000    -4.360000000
O    -2.214000000     2.841000000    -4.418000000
H    -1.576000000     2.143000000    -4.270000000
H    -2.232000000     3.328000000    -3.594000000
O    -6.368000000    -0.515000000    -1.632000000
H    -5.483000000    -0.411000000    -1.983000000
H    -6.501000000    -1.462000000    -1.592000000
O    -5.085000000     1.168000000     0.195000000
H    -4.462000000     1.368000000    -0.503000000
H    -5.602000000     0.438000000    -0.147000000
O    -6.418000000     4.558000000     0.667000000
H    -6.255000000     5.300000000     1.249000000
H    -7.196000000     4.810000000     0.169000000
O    -7.995000000     1.507000000    -6.193000000
H    -7.834000000     1.850000000    -7.072000000
H    -7.128000000     1.467000000    -5.789000000
O    -5.246000000     1.747000000    -4.488000000
H    -5.836000000     1.771000000    -3.735000000
H    -4.389000000     1.544000000    -4.114000000
O    -2.436000000     4.330000000    -6.575000000
H    -1.837000000     5.073000000    -6.499000000
H    -2.493000000     3.977000000    -5.687000000
O    -4.333000000     3.965000000    -1.626000000
H    -4.751000000     3.912000000    -0.767000000
H    -4.090000000     3.062000000    -1.830000000
O    -7.120000000     1.991000000     1.703000000
H    -6.552000000     1.462000000     1.143000000
H    -6.773000000     2.879000000     1.626000000
O    -6.514000000     4.461000000    -3.051000000
H    -7.041000000     3.672000000    -2.922000000
H    -5.705000000     4.290000000    -2.569000000
O    -7.270000000    -4.540000000    -3.337000000
H    -7.519000000    -4.181000000    -2.486000000
H    -7.552000000    -3.878000000    -3.968000000
