215
-1462.90381
C    -3.276000000    -1.611000000     3.240000000
H    -2.778000000    -0.939000000     3.935000000
C    -2.528000000    -2.624000000     2.637000000
C    -3.135000000    -3.501000000     1.750000000
H    -2.525000000    -4.297000000     1.330000000
C    -1.023000000    -2.618000000     2.887000000
O    -0.766000000    -2.048000000     4.218000000
H    -0.563000000    -1.918000000     2.173000000
O    -0.392000000    -3.909000000     2.711000000
C     0.717000000    -3.944000000     1.959000000
C     0.686000000    -4.193000000     0.608000000
H    -0.246000000    -4.432000000     0.103000000
C     1.809000000    -4.201000000    -0.164000000
O     1.719000000    -4.535000000    -1.519000000
C     3.036000000    -3.774000000     0.386000000
C     4.284000000    -3.700000000    -0.509000000
H     5.238000000    -3.712000000     0.022000000
C     4.230000000    -2.321000000    -1.186000000
C     4.895000000    -1.228000000    -0.600000000
H     5.502000000    -1.334000000     0.296000000
H     4.335000000    -4.401000000    -1.345000000
C     3.032000000    -3.436000000     1.761000000
H     3.877000000    -2.997000000     2.285000000
C     1.901000000    -3.567000000     2.575000000
C     2.054000000    -3.192000000     4.027000000
H     3.038000000    -3.463000000     4.417000000
H     1.322000000    -3.826000000     4.531000000
C     1.688000000    -1.719000000     4.278000000
C     2.661000000    -0.735000000     4.262000000
H     3.700000000    -0.941000000     4.018000000
C     0.345000000    -1.250000000     4.348000000
C     0.010000000     0.071000000     4.439000000
H    -1.057000000     0.276000000     4.421000000
C     0.990000000     1.009000000     4.663000000
O     0.511000000     2.314000000     4.527000000
C     0.370000000     2.859000000     3.215000000
C    -0.951000000     3.595000000     3.131000000
C    -1.051000000     4.590000000     2.198000000
H    -0.238000000     4.813000000     1.511000000
C    -2.014000000     3.320000000     4.006000000
H    -1.920000000     2.591000000     4.806000000
O     1.536000000     3.699000000     3.006000000
H     0.382000000     2.132000000     2.389000000
C     2.324000000     0.629000000     4.436000000
C     3.414000000     1.680000000     4.140000000
H     4.347000000     1.301000000     4.562000000
H     3.107000000     2.594000000     4.653000000
C     3.441000000     2.116000000     2.708000000
C     4.328000000     1.493000000     1.795000000
H     5.024000000     0.777000000     2.225000000
C     2.538000000     3.121000000     2.267000000
C     2.597000000     3.555000000     0.911000000
H     1.893000000     4.328000000     0.615000000
C     3.456000000     2.905000000     0.017000000
O     3.325000000     3.330000000    -1.318000000
C     2.784000000     2.349000000    -2.277000000
C     1.903000000     3.099000000    -3.317000000
C     1.175000000     4.192000000    -2.885000000
H     1.226000000     4.504000000    -1.845000000
C     1.565000000     2.416000000    -4.492000000
H     2.107000000     1.509000000    -4.749000000
O     3.786000000     1.475000000    -2.809000000
H     2.165000000     1.671000000    -1.672000000
C     4.349000000     1.947000000     0.501000000
C     5.341000000     1.265000000    -0.482000000
H     6.295000000     0.937000000    -0.064000000
H     5.720000000     1.984000000    -1.211000000
C     4.766000000     0.067000000    -1.184000000
C     4.006000000     0.241000000    -2.383000000
C     3.370000000    -0.804000000    -2.872000000
H     2.845000000    -0.599000000    -3.802000000
C     3.429000000    -2.093000000    -2.330000000
O     2.787000000    -3.119000000    -2.946000000
C     1.500000000    -3.416000000    -2.370000000
H     1.214000000    -2.473000000    -1.881000000
C     0.432000000    -3.689000000    -3.401000000
C    -0.822000000    -4.224000000    -3.006000000
H    -0.954000000    -4.593000000    -1.993000000
C     0.598000000    -3.221000000    -4.759000000
H     1.516000000    -2.697000000    -5.014000000
C    -0.447000000    -3.325000000    -5.665000000
O    -0.320000000    -2.746000000    -6.914000000
C    -1.681000000    -3.886000000    -5.245000000
H    -2.470000000    -4.033000000    -5.979000000
C    -1.853000000    -4.302000000    -3.983000000
O    -3.066000000    -4.920000000    -3.670000000
C    -3.392000000    -5.420000000    -2.424000000
C    -4.179000000    -4.644000000    -1.578000000
H    -4.313000000    -3.598000000    -1.838000000
C    -3.202000000    -6.756000000    -2.064000000
H    -2.789000000    -7.489000000    -2.753000000
C    -3.712000000    -7.187000000    -0.833000000
H    -3.544000000    -8.210000000    -0.506000000
C    -4.231000000    -6.306000000     0.113000000
H    -4.436000000    -6.717000000     1.099000000
C    -4.523000000    -5.044000000    -0.317000000
O    -5.123000000    -4.180000000     0.522000000
C    -4.483000000    -3.293000000     1.376000000
C    -5.262000000    -2.337000000     2.034000000
H    -6.316000000    -2.257000000     1.777000000
C    -4.652000000    -1.528000000     2.943000000
O    -5.457000000    -0.551000000     3.412000000
C    -5.098000000     0.363000000     4.394000000
C    -4.819000000     1.692000000     4.100000000
H    -4.783000000     1.907000000     3.035000000
C    -5.263000000    -0.098000000     5.747000000
H    -5.530000000    -1.138000000     5.916000000
C    -5.210000000     0.827000000     6.780000000
H    -5.317000000     0.560000000     7.828000000
C    -4.928000000     2.171000000     6.425000000
H    -4.827000000     2.965000000     7.160000000
C    -4.633000000     2.596000000     5.124000000
O    -4.228000000     3.875000000     4.893000000
C    -3.156000000     4.185000000     4.034000000
C    -3.198000000     5.256000000     3.181000000
H    -4.095000000     5.869000000     3.159000000
C    -2.204000000     5.411000000     2.254000000
O    -2.362000000     6.479000000     1.403000000
C    -1.501000000     6.678000000     0.313000000
C    -1.574000000     6.032000000    -0.915000000
H    -2.366000000     5.306000000    -1.079000000
C    -0.453000000     7.530000000     0.454000000
H    -0.226000000     7.954000000     1.428000000
C     0.481000000     7.797000000    -0.571000000
H     1.268000000     8.505000000    -0.325000000
C     0.391000000     7.148000000    -1.776000000
H     1.193000000     7.122000000    -2.509000000
C    -0.725000000     6.329000000    -1.993000000
O    -0.844000000     5.629000000    -3.111000000
C     0.076000000     4.659000000    -3.624000000
C    -0.236000000     3.981000000    -4.841000000
H    -1.169000000     4.187000000    -5.359000000
C     0.500000000     2.854000000    -5.246000000
O     0.086000000     2.122000000    -6.314000000
C     0.563000000     0.847000000    -6.802000000
C     1.731000000     0.834000000    -7.584000000
H     2.150000000     1.819000000    -7.774000000
C     2.238000000    -0.360000000    -8.029000000
H     3.162000000    -0.356000000    -8.601000000
C     1.534000000    -1.596000000    -7.761000000
H     1.765000000    -2.518000000    -8.288000000
C     0.272000000    -1.553000000    -7.160000000
C    -0.253000000    -0.315000000    -6.721000000
H    -1.225000000    -0.285000000    -6.235000000
C    -1.009000000     1.275000000    -1.402000000
H    -0.908000000     2.278000000    -1.809000000
C    -0.125000000     0.906000000    -0.353000000
H     0.538000000     1.664000000     0.057000000
C    -0.098000000    -0.402000000     0.130000000
H     0.635000000    -0.735000000     0.873000000
C    -1.088000000    -1.342000000    -0.378000000
H    -1.055000000    -2.384000000    -0.070000000
C    -2.001000000    -0.922000000    -1.377000000
H    -2.782000000    -1.600000000    -1.712000000
C    -1.949000000     0.367000000    -1.902000000
C    -2.912000000     0.611000000    -3.037000000
O    -3.690000000    -0.274000000    -3.465000000
O    -2.923000000     1.701000000    -3.563000000
O    -9.200000000     0.425000000    -1.197000000
H    -9.942000000     0.858000000    -0.775000000
H    -8.636000000     1.142000000    -1.486000000
O    -3.984000000     6.031000000    -5.644000000
H    -3.792000000     5.454000000    -4.905000000
H    -4.850000000     6.389000000    -5.450000000
O    -6.958000000    -3.654000000    -6.612000000
H    -7.343000000    -3.477000000    -5.754000000
H    -6.174000000    -3.105000000    -6.640000000
O    -6.289000000     0.287000000    -3.452000000
H    -5.339000000     0.236000000    -3.352000000
H    -6.465000000    -0.129000000    -4.296000000
O    -3.412000000     4.222000000    -3.477000000
H    -2.522000000     4.544000000    -3.334000000
H    -3.317000000     3.272000000    -3.537000000
O    -7.562000000    -1.959000000    -0.895000000
H    -7.858000000    -2.516000000    -0.174000000
H    -8.155000000    -1.209000000    -0.876000000
O    -6.162000000     4.722000000    -2.274000000
H    -5.410000000     4.431000000    -2.791000000
H    -6.915000000     4.306000000    -2.693000000
O    -7.677000000    -3.618000000    -3.636000000
H    -7.708000000    -4.062000000    -2.788000000
H    -6.765000000    -3.343000000    -3.729000000
O    -3.803000000     2.716000000    -5.932000000
H    -4.108000000     3.537000000    -5.545000000
H    -3.424000000     2.232000000    -5.199000000
O    -4.163000000     0.044000000    -6.295000000
H    -4.121000000    -0.323000000    -5.412000000
H    -4.071000000     0.988000000    -6.166000000
O    -5.922000000     0.448000000    -0.693000000
H    -5.435000000     0.748000000    -1.461000000
H    -6.426000000    -0.303000000    -1.007000000
O    -3.312000000     2.180000000     0.076000000
H    -3.594000000     1.424000000     0.590000000
H    -2.571000000     1.858000000    -0.437000000
O    -7.481000000     2.493000000    -3.444000000
H    -7.415000000     2.608000000    -4.392000000
H    -7.077000000     1.641000000    -3.277000000
O    -5.116000000    -2.728000000    -4.034000000
H    -4.554000000    -2.650000000    -4.805000000
H    -4.799000000    -2.050000000    -3.438000000
O    -1.984000000     2.065000000    -8.788000000
H    -2.359000000     2.141000000    -7.910000000
H    -2.622000000     1.545000000    -9.276000000
O    -5.029000000     4.237000000     0.547000000
H    -4.434000000     3.526000000     0.309000000
H    -5.087000000     4.776000000    -0.242000000
O    -4.418000000    -2.657000000    -6.959000000
H    -4.134000000    -3.142000000    -7.734000000
H    -4.182000000    -1.748000000    -7.146000000
O    -7.406000000     1.403000000     1.590000000
H    -6.826000000     1.009000000     0.938000000
H    -8.258000000     0.999000000     1.428000000
O    -7.024000000    -0.495000000    -6.164000000
H    -7.471000000    -0.301000000    -6.988000000
H    -6.096000000    -0.527000000    -6.396000000
