215
-1453.55746
C    -3.170000000    -0.906000000     3.796000000
H    -2.714000000     0.006000000     4.173000000
C    -2.431000000    -2.088000000     3.580000000
C    -3.101000000    -3.202000000     3.085000000
H    -2.582000000    -4.042000000     2.631000000
C    -0.897000000    -2.052000000     3.669000000
O    -0.539000000    -1.037000000     4.650000000
H    -0.453000000    -1.663000000     2.740000000
O    -0.288000000    -3.371000000     3.954000000
C     0.789000000    -3.722000000     3.159000000
C     0.534000000    -4.398000000     2.014000000
H    -0.457000000    -4.821000000     1.874000000
C     1.524000000    -4.425000000     1.030000000
O     1.063000000    -4.816000000    -0.188000000
C     2.827000000    -3.922000000     1.234000000
C     3.913000000    -3.971000000     0.220000000
H     4.877000000    -4.050000000     0.726000000
C     3.930000000    -2.843000000    -0.766000000
C     4.711000000    -1.750000000    -0.470000000
H     5.582000000    -1.775000000     0.179000000
H     3.816000000    -4.908000000    -0.332000000
C     3.030000000    -3.254000000     2.431000000
H     3.944000000    -2.733000000     2.702000000
C     2.017000000    -3.076000000     3.405000000
C     2.206000000    -2.212000000     4.609000000
H     3.245000000    -2.233000000     4.946000000
H     1.624000000    -2.608000000     5.443000000
C     1.857000000    -0.762000000     4.325000000
C     2.906000000     0.111000000     4.060000000
H     3.939000000    -0.228000000     4.049000000
C     0.585000000    -0.234000000     4.507000000
C     0.318000000     1.133000000     4.271000000
H    -0.680000000     1.553000000     4.367000000
C     1.395000000     1.963000000     3.913000000
O     1.127000000     3.271000000     3.567000000
C     1.009000000     3.540000000     2.165000000
C    -0.256000000     4.381000000     1.895000000
C    -0.351000000     5.097000000     0.692000000
H     0.515000000     5.069000000     0.036000000
C    -1.475000000     4.248000000     2.644000000
H    -1.517000000     3.631000000     3.538000000
O     2.176000000     4.172000000     1.748000000
H     0.792000000     2.618000000     1.606000000
C     2.671000000     1.481000000     3.805000000
C     3.730000000     2.354000000     3.337000000
H     4.568000000     1.995000000     3.938000000
H     3.518000000     3.319000000     3.802000000
C     3.944000000     2.461000000     1.885000000
C     4.717000000     1.557000000     1.111000000
H     5.375000000     0.830000000     1.579000000
C     3.217000000     3.432000000     1.170000000
C     3.200000000     3.502000000    -0.206000000
H     2.511000000     4.158000000    -0.731000000
C     4.031000000     2.702000000    -0.918000000
O     3.759000000     2.623000000    -2.273000000
C     2.821000000     1.626000000    -2.708000000
C     1.785000000     2.176000000    -3.679000000
C     1.787000000     3.533000000    -4.054000000
H     2.441000000     4.296000000    -3.639000000
C     0.845000000     1.274000000    -4.261000000
H     0.727000000     0.219000000    -4.027000000
O     3.461000000     0.496000000    -3.200000000
H     2.286000000     1.190000000    -1.852000000
C     4.700000000     1.663000000    -0.304000000
C     5.460000000     0.608000000    -1.074000000
H     6.369000000     0.385000000    -0.511000000
H     5.862000000     0.918000000    -2.041000000
C     4.601000000    -0.615000000    -1.294000000
C     3.646000000    -0.603000000    -2.305000000
C     2.837000000    -1.739000000    -2.588000000
H     2.098000000    -1.664000000    -3.382000000
C     2.983000000    -2.868000000    -1.779000000
O     2.198000000    -3.962000000    -1.959000000
C     1.013000000    -3.892000000    -1.207000000
H     0.899000000    -2.880000000    -0.790000000
C    -0.159000000    -4.252000000    -2.095000000
C    -1.402000000    -4.769000000    -1.594000000
H    -1.567000000    -5.009000000    -0.547000000
C    -0.121000000    -4.014000000    -3.502000000
H     0.807000000    -3.662000000    -3.947000000
C    -1.197000000    -4.256000000    -4.363000000
O    -1.183000000    -3.999000000    -5.705000000
C    -2.319000000    -4.781000000    -3.787000000
H    -3.123000000    -4.966000000    -4.494000000
C    -2.461000000    -5.076000000    -2.452000000
O    -3.629000000    -5.588000000    -2.046000000
C    -4.005000000    -5.953000000    -0.755000000
C    -4.271000000    -4.886000000     0.123000000
H    -4.348000000    -3.888000000    -0.302000000
C    -3.889000000    -7.244000000    -0.346000000
H    -3.693000000    -8.052000000    -1.047000000
C    -4.187000000    -7.533000000     1.012000000
H    -4.173000000    -8.567000000     1.345000000
C    -4.569000000    -6.486000000     1.850000000
H    -4.847000000    -6.689000000     2.880000000
C    -4.567000000    -5.159000000     1.443000000
O    -5.087000000    -4.175000000     2.219000000
C    -4.462000000    -3.047000000     2.705000000
C    -5.212000000    -1.895000000     2.864000000
H    -6.282000000    -1.983000000     2.697000000
C    -4.584000000    -0.820000000     3.393000000
O    -5.163000000     0.397000000     3.578000000
C    -4.620000000     1.593000000     4.119000000
C    -4.451000000     2.749000000     3.290000000
H    -4.536000000     2.580000000     2.220000000
C    -4.516000000     1.593000000     5.467000000
H    -4.534000000     0.624000000     5.959000000
C    -4.093000000     2.745000000     6.129000000
H    -3.813000000     2.652000000     7.175000000
C    -3.904000000     3.918000000     5.407000000
H    -3.564000000     4.804000000     5.938000000
C    -4.019000000     3.905000000     4.003000000
O    -3.666000000     4.998000000     3.227000000
C    -2.615000000     5.002000000     2.357000000
C    -2.630000000     5.803000000     1.242000000
H    -3.527000000     6.390000000     1.062000000
C    -1.579000000     5.783000000     0.340000000
O    -1.725000000     6.522000000    -0.783000000
C    -0.771000000     6.711000000    -1.728000000
C    -0.599000000     5.823000000    -2.800000000
H    -1.346000000     5.033000000    -2.810000000
C     0.069000000     7.824000000    -1.634000000
H    -0.202000000     8.593000000    -0.914000000
C     1.068000000     8.053000000    -2.613000000
H     1.664000000     8.961000000    -2.586000000
C     1.238000000     7.132000000    -3.667000000
H     1.995000000     7.275000000    -4.434000000
C     0.328000000     6.095000000    -3.829000000
O     0.407000000     5.359000000    -4.890000000
C     0.626000000     4.036000000    -4.715000000
C    -0.271000000     3.113000000    -5.242000000
H    -1.086000000     3.438000000    -5.884000000
C    -0.246000000     1.742000000    -4.954000000
O    -1.141000000     0.828000000    -5.507000000
C    -0.713000000    -0.358000000    -6.103000000
C    -0.091000000    -0.349000000    -7.314000000
H     0.232000000     0.584000000    -7.768000000
C     0.146000000    -1.558000000    -7.954000000
H     0.612000000    -1.522000000    -8.935000000
C    -0.101000000    -2.760000000    -7.378000000
H     0.117000000    -3.705000000    -7.868000000
C    -0.833000000    -2.751000000    -6.208000000
C    -1.177000000    -1.557000000    -5.544000000
H    -1.895000000    -1.576000000    -4.729000000
C    -1.022000000     1.127000000    -1.546000000
H    -1.162000000     2.020000000    -2.149000000
C    -0.056000000     0.874000000    -0.586000000
H     0.727000000     1.605000000    -0.403000000
C    -0.110000000    -0.306000000     0.122000000
H     0.640000000    -0.572000000     0.873000000
C    -1.132000000    -1.255000000    -0.107000000
H    -1.121000000    -2.222000000     0.390000000
C    -2.137000000    -0.947000000    -1.020000000
H    -2.892000000    -1.703000000    -1.216000000
C    -2.055000000     0.216000000    -1.779000000
C    -3.291000000     0.542000000    -2.555000000
O    -4.216000000    -0.267000000    -2.656000000
O    -3.687000000     1.711000000    -2.462000000
O    -5.708000000     0.105000000    -0.149000000
H    -5.526000000    -0.793000000     0.130000000
H    -5.218000000     0.205000000    -0.965000000
O    -7.529000000     1.824000000     1.124000000
H    -6.928000000     1.182000000     0.747000000
H    -7.089000000     2.666000000     1.002000000
O    -7.278000000    -3.529000000    -0.120000000
H    -6.755000000    -3.479000000    -0.920000000
H    -8.025000000    -2.954000000    -0.286000000
O    -4.802000000     5.444000000    -2.265000000
H    -4.435000000     5.005000000    -1.498000000
H    -4.621000000     4.847000000    -2.992000000
O    -6.342000000    -3.357000000    -6.538000000
H    -5.655000000    -3.675000000    -7.123000000
H    -5.955000000    -2.595000000    -6.106000000
O    -7.839000000    -0.427000000    -3.285000000
H    -7.696000000    -0.710000000    -2.382000000
H    -7.200000000     0.273000000    -3.421000000
O    -4.287000000     3.692000000    -4.336000000
H    -4.661000000     3.090000000    -4.980000000
H    -3.921000000     3.122000000    -3.660000000
O    -8.704000000    -1.910000000    -5.531000000
H    -8.583000000    -1.152000000    -4.958000000
H    -7.815000000    -2.193000000    -5.745000000
O    -6.514000000     4.496000000     0.444000000
H    -6.332000000     5.377000000     0.772000000
H    -5.649000000     4.119000000     0.280000000
O    -6.449000000     1.784000000    -3.711000000
H    -6.877000000     2.527000000    -3.286000000
H    -5.585000000     1.739000000    -3.301000000
O    -4.840000000    -1.006000000    -5.315000000
H    -4.669000000    -0.711000000    -4.421000000
H    -4.705000000    -0.227000000    -5.855000000
O    -5.495000000    -2.661000000    -2.089000000
H    -5.203000000    -3.071000000    -2.903000000
H    -5.465000000    -1.722000000    -2.269000000
O    -5.013000000     5.879000000    -6.074000000
H    -4.522000000     5.131000000    -5.735000000
H    -5.410000000     6.276000000    -5.299000000
O    -2.363000000     1.729000000     1.260000000
H    -2.329000000     1.119000000     0.523000000
H    -1.668000000     1.434000000     1.848000000
O    -3.866000000     0.753000000    -7.232000000
H    -4.581000000     1.250000000    -7.629000000
H    -3.073000000     1.117000000    -7.626000000
O    -4.281000000     3.186000000    -0.347000000
H    -3.570000000     2.792000000     0.158000000
H    -4.274000000     2.715000000    -1.180000000
O    -3.320000000    -1.868000000    -7.907000000
H    -2.417000000    -1.626000000    -7.701000000
H    -3.836000000    -1.100000000    -7.664000000
O    -7.188000000     3.791000000    -2.154000000
H    -6.844000000     3.933000000    -1.272000000
H    -8.139000000     3.786000000    -2.041000000
O    -8.302000000     1.575000000    -5.862000000
H    -8.725000000     2.433000000    -5.886000000
H    -7.679000000     1.635000000    -5.138000000
