215
-1434.47689
C    -3.278000000    -0.981000000     3.204000000
H    -3.026000000    -0.048000000     3.702000000
C    -2.411000000    -1.960000000     2.700000000
C    -2.925000000    -2.931000000     1.860000000
H    -2.223000000    -3.597000000     1.365000000
C    -1.013000000    -2.127000000     3.143000000
O    -0.731000000    -1.577000000     4.363000000
H    -0.527000000    -1.506000000     2.376000000
O    -0.477000000    -3.490000000     3.012000000
C     0.797000000    -3.709000000     2.483000000
C     0.889000000    -4.328000000     1.253000000
H    -0.025000000    -4.735000000     0.827000000
C     2.061000000    -4.340000000     0.517000000
O     1.982000000    -4.831000000    -0.733000000
C     3.190000000    -3.759000000     1.014000000
C     4.524000000    -3.618000000     0.125000000
H     5.403000000    -3.494000000     0.760000000
C     4.374000000    -2.412000000    -0.758000000
C     5.008000000    -1.232000000    -0.431000000
H     5.626000000    -1.191000000     0.462000000
H     4.675000000    -4.578000000    -0.372000000
C     3.158000000    -3.199000000     2.287000000
H     4.063000000    -2.886000000     2.802000000
C     1.985000000    -3.159000000     3.039000000
C     2.001000000    -2.534000000     4.409000000
H     3.000000000    -2.742000000     4.800000000
H     1.323000000    -3.015000000     5.117000000
C     1.627000000    -1.099000000     4.341000000
C     2.661000000    -0.152000000     4.187000000
H     3.667000000    -0.562000000     4.153000000
C     0.347000000    -0.686000000     4.377000000
C    -0.032000000     0.643000000     4.249000000
H    -1.047000000     1.012000000     4.376000000
C     0.959000000     1.599000000     4.236000000
O     0.557000000     2.912000000     4.120000000
C     0.393000000     3.322000000     2.766000000
C    -0.911000000     4.114000000     2.469000000
C    -0.909000000     5.026000000     1.490000000
H     0.022000000     5.198000000     0.956000000
C    -2.028000000     3.895000000     3.241000000
H    -2.214000000     3.030000000     3.873000000
O     1.550000000     4.111000000     2.452000000
H     0.377000000     2.386000000     2.188000000
C     2.283000000     1.196000000     4.132000000
C     3.414000000     2.261000000     3.842000000
H     4.338000000     1.874000000     4.277000000
H     3.262000000     3.209000000     4.363000000
C     3.412000000     2.487000000     2.344000000
C     4.397000000     1.888000000     1.582000000
H     5.084000000     1.125000000     1.939000000
C     2.601000000     3.535000000     1.776000000
C     2.640000000     3.730000000     0.452000000
H     2.137000000     4.562000000    -0.034000000
C     3.470000000     2.946000000    -0.353000000
O     3.321000000     3.035000000    -1.691000000
C     2.628000000     1.946000000    -2.352000000
C     1.623000000     2.440000000    -3.413000000
C     1.083000000     3.740000000    -3.356000000
H     1.469000000     4.434000000    -2.614000000
C     1.035000000     1.533000000    -4.193000000
H     1.361000000     0.496000000    -4.179000000
O     3.610000000     1.024000000    -2.988000000
H     2.133000000     1.424000000    -1.520000000
C     4.399000000     2.066000000     0.192000000
C     5.327000000     1.280000000    -0.649000000
H     6.239000000     1.132000000    -0.066000000
H     5.720000000     1.958000000    -1.410000000
C     4.773000000    -0.076000000    -1.213000000
C     3.929000000    -0.082000000    -2.262000000
C     3.388000000    -1.270000000    -2.661000000
H     2.847000000    -1.347000000    -3.600000000
C     3.623000000    -2.454000000    -1.955000000
O     2.951000000    -3.592000000    -2.349000000
C     1.697000000    -3.966000000    -1.739000000
H     1.213000000    -3.107000000    -1.251000000
C     0.557000000    -4.491000000    -2.672000000
C    -0.491000000    -5.323000000    -2.310000000
H    -0.623000000    -5.687000000    -1.295000000
C     0.605000000    -4.056000000    -4.039000000
H     1.418000000    -3.396000000    -4.330000000
C    -0.423000000    -4.352000000    -4.896000000
O    -0.400000000    -3.823000000    -6.165000000
C    -1.517000000    -5.106000000    -4.508000000
H    -2.451000000    -5.242000000    -5.046000000
C    -1.567000000    -5.573000000    -3.205000000
O    -2.669000000    -6.304000000    -2.802000000
C    -3.123000000    -6.239000000    -1.536000000
C    -3.681000000    -5.085000000    -1.056000000
H    -3.681000000    -4.262000000    -1.767000000
C    -3.157000000    -7.409000000    -0.766000000
H    -2.664000000    -8.323000000    -1.088000000
C    -3.884000000    -7.337000000     0.454000000
H    -3.985000000    -8.243000000     1.046000000
C    -4.348000000    -6.101000000     0.941000000
H    -4.811000000    -6.070000000     1.924000000
C    -4.269000000    -4.989000000     0.146000000
O    -4.784000000    -3.789000000     0.543000000
C    -4.349000000    -2.960000000     1.511000000
C    -5.225000000    -2.158000000     2.181000000
H    -6.265000000    -2.099000000     1.871000000
C    -4.694000000    -1.167000000     3.046000000
O    -5.602000000    -0.264000000     3.490000000
C    -5.247000000     0.858000000     4.185000000
C    -4.916000000     2.016000000     3.499000000
H    -4.786000000     2.063000000     2.421000000
C    -5.449000000     0.904000000     5.587000000
H    -5.776000000     0.020000000     6.128000000
C    -5.277000000     2.070000000     6.293000000
H    -5.415000000     2.073000000     7.372000000
C    -4.960000000     3.232000000     5.570000000
H    -4.644000000     4.099000000     6.144000000
C    -4.787000000     3.209000000     4.235000000
O    -4.315000000     4.382000000     3.683000000
C    -3.135000000     4.707000000     3.049000000
C    -3.146000000     5.679000000     2.048000000
H    -4.045000000     6.273000000     1.904000000
C    -2.021000000     5.820000000     1.264000000
O    -2.010000000     6.829000000     0.315000000
C    -1.160000000     6.983000000    -0.798000000
C    -1.329000000     6.168000000    -1.906000000
H    -2.114000000     5.420000000    -1.972000000
C    -0.134000000     7.887000000    -0.788000000
H    -0.016000000     8.464000000     0.125000000
C     0.751000000     8.031000000    -1.858000000
H     1.629000000     8.670000000    -1.816000000
C     0.573000000     7.239000000    -2.945000000
H     1.215000000     7.405000000    -3.806000000
C    -0.437000000     6.259000000    -2.974000000
O    -0.624000000     5.382000000    -4.020000000
C    -0.040000000     4.117000000    -4.129000000
C    -0.523000000     3.247000000    -5.043000000
H    -1.373000000     3.613000000    -5.614000000
C    -0.019000000     1.913000000    -5.068000000
O    -0.709000000     0.957000000    -5.835000000
C    -0.080000000    -0.120000000    -6.313000000
C     1.006000000     0.016000000    -7.211000000
H     1.381000000     0.970000000    -7.572000000
C     1.450000000    -1.174000000    -7.862000000
H     2.227000000    -1.077000000    -8.615000000
C     0.990000000    -2.398000000    -7.493000000
H     1.363000000    -3.298000000    -7.975000000
C     0.048000000    -2.488000000    -6.473000000
C    -0.562000000    -1.368000000    -5.959000000
H    -1.404000000    -1.391000000    -5.272000000
C    -1.139000000     1.970000000    -1.543000000
H    -1.425000000     3.017000000    -1.609000000
C    -0.196000000     1.717000000    -0.514000000
H     0.156000000     2.558000000     0.076000000
C     0.186000000     0.421000000    -0.238000000
H     0.773000000     0.073000000     0.619000000
C    -0.351000000    -0.629000000    -1.001000000
H    -0.105000000    -1.642000000    -0.693000000
C    -1.348000000    -0.393000000    -1.997000000
H    -1.616000000    -1.210000000    -2.662000000
C    -1.727000000     0.896000000    -2.274000000
C    -2.961000000     1.103000000    -3.197000000
O    -3.488000000     0.137000000    -3.668000000
O    -3.496000000     2.176000000    -3.206000000
O    -6.035000000     0.155000000     0.145000000
H    -5.131000000     0.330000000     0.407000000
H    -5.990000000     0.032000000    -0.803000000
O    -5.860000000     5.643000000    -5.206000000
H    -6.489000000     5.074000000    -5.650000000
H    -6.348000000     6.011000000    -4.469000000
O    -4.334000000     7.496000000    -2.170000000
H    -4.114000000     6.728000000    -2.697000000
H    -4.257000000     7.196000000    -1.265000000
O    -6.949000000     3.585000000    -2.487000000
H    -7.372000000     4.165000000    -3.120000000
H    -6.422000000     2.991000000    -3.022000000
O    -9.129000000     2.093000000    -2.980000000
H    -8.410000000     2.454000000    -2.461000000
H    -8.757000000     1.973000000    -3.853000000
O    -3.937000000     4.724000000    -3.167000000
H    -4.671000000     4.650000000    -3.777000000
H    -3.515000000     3.866000000    -3.195000000
O    -8.163000000    -2.743000000    -1.648000000
H    -7.806000000    -1.868000000    -1.799000000
H    -8.609000000    -2.677000000    -0.803000000
O    -6.634000000     3.942000000     0.213000000
H    -5.677000000     3.910000000     0.234000000
H    -6.861000000     3.701000000    -0.685000000
O    -5.713000000     2.480000000    -4.724000000
H    -5.398000000     2.458000000    -5.628000000
H    -4.958000000     2.210000000    -4.201000000
O    -4.026000000    -0.332000000    -6.132000000
H    -3.837000000    -0.159000000    -5.209000000
H    -4.174000000     0.534000000    -6.512000000
O    -5.897000000    -0.146000000    -2.783000000
H    -6.241000000     0.174000000    -3.617000000
H    -4.948000000    -0.044000000    -2.860000000
O    -3.068000000     0.208000000     0.570000000
H    -2.418000000     0.504000000    -0.066000000
H    -2.757000000    -0.653000000     0.848000000
O    -4.687000000    -3.157000000    -3.871000000
H    -4.200000000    -3.091000000    -4.692000000
H    -4.544000000    -2.315000000    -3.439000000
O    -4.772000000     2.207000000    -7.230000000
H    -3.917000000     2.636000000    -7.222000000
H    -5.023000000     2.190000000    -8.154000000
O    -4.077000000     3.487000000    -0.179000000
H    -3.461000000     2.761000000    -0.079000000
H    -4.176000000     3.589000000    -1.125000000
O    -2.512000000     0.127000000    -8.874000000
H    -2.115000000    -0.744000000    -8.863000000
H    -3.174000000     0.096000000    -8.183000000
O    -1.758000000     3.061000000    -8.139000000
H    -1.792000000     2.109000000    -8.039000000
H    -0.941000000     3.223000000    -8.611000000
O    -3.842000000    -2.996000000    -6.496000000
H    -3.026000000    -3.042000000    -6.994000000
H    -4.041000000    -2.061000000    -6.448000000
O    -8.266000000     1.379000000    -5.534000000
H    -8.411000000     1.615000000    -6.450000000
H    -7.351000000     1.607000000    -5.369000000
