215
-1454.07733
C    -4.331000000    -1.189000000     3.043000000
H    -3.933000000    -0.263000000     3.452000000
C    -3.521000000    -2.289000000     2.804000000
C    -4.051000000    -3.336000000     2.025000000
H    -3.419000000    -4.168000000     1.725000000
C    -2.053000000    -2.124000000     3.198000000
O    -1.840000000    -1.276000000     4.314000000
H    -1.577000000    -1.666000000     2.319000000
O    -1.540000000    -3.472000000     3.451000000
C    -0.274000000    -3.708000000     3.050000000
C    -0.228000000    -4.373000000     1.793000000
H    -1.179000000    -4.695000000     1.377000000
C     0.943000000    -4.485000000     1.098000000
O     0.826000000    -4.847000000    -0.226000000
C     2.137000000    -4.067000000     1.691000000
C     3.501000000    -4.253000000     1.009000000
H     4.299000000    -4.327000000     1.751000000
C     3.780000000    -2.954000000     0.247000000
C     4.338000000    -1.878000000     0.938000000
H     4.646000000    -1.980000000     1.975000000
H     3.673000000    -5.117000000     0.364000000
C     2.096000000    -3.447000000     2.939000000
H     2.952000000    -3.064000000     3.488000000
C     0.856000000    -3.199000000     3.603000000
C     0.806000000    -2.370000000     4.898000000
H     1.757000000    -2.341000000     5.434000000
H     0.093000000    -2.759000000     5.629000000
C     0.514000000    -0.869000000     4.627000000
C     1.503000000     0.065000000     4.825000000
H     2.513000000    -0.321000000     4.948000000
C    -0.724000000    -0.453000000     4.250000000
C    -0.954000000     0.932000000     3.943000000
H    -1.903000000     1.351000000     3.621000000
C     0.012000000     1.894000000     4.250000000
O    -0.180000000     3.243000000     3.869000000
C     0.308000000     3.587000000     2.550000000
C    -0.766000000     4.307000000     1.731000000
C    -0.438000000     5.184000000     0.661000000
H     0.563000000     5.532000000     0.418000000
C    -2.070000000     3.895000000     1.925000000
H    -2.361000000     3.135000000     2.646000000
O     1.599000000     4.170000000     2.676000000
H     0.509000000     2.659000000     1.994000000
C     1.272000000     1.410000000     4.635000000
C     2.513000000     2.328000000     4.658000000
H     3.282000000     1.983000000     5.352000000
H     2.114000000     3.269000000     5.043000000
C     3.144000000     2.467000000     3.289000000
C     4.044000000     1.543000000     2.844000000
H     4.146000000     0.690000000     3.509000000
C     2.691000000     3.424000000     2.390000000
C     3.146000000     3.471000000     1.034000000
H     2.769000000     4.248000000     0.374000000
C     3.963000000     2.477000000     0.574000000
O     4.321000000     2.652000000    -0.748000000
C     3.620000000     1.735000000    -1.597000000
C     3.162000000     2.292000000    -2.927000000
C     3.128000000     3.662000000    -3.078000000
H     3.367000000     4.209000000    -2.170000000
C     2.885000000     1.509000000    -4.063000000
H     2.971000000     0.426000000    -4.039000000
O     4.442000000     0.571000000    -1.852000000
H     2.693000000     1.447000000    -1.079000000
C     4.488000000     1.533000000     1.488000000
C     5.374000000     0.389000000     0.984000000
H     6.075000000    -0.027000000     1.711000000
H     6.147000000     0.831000000     0.353000000
C     4.588000000    -0.669000000     0.288000000
C     4.164000000    -0.551000000    -1.060000000
C     3.474000000    -1.573000000    -1.657000000
H     3.120000000    -1.483000000    -2.680000000
C     3.222000000    -2.798000000    -0.989000000
O     2.394000000    -3.729000000    -1.564000000
C     1.014000000    -3.711000000    -1.108000000
H     0.806000000    -2.741000000    -0.634000000
C     0.102000000    -3.850000000    -2.335000000
C    -1.150000000    -4.402000000    -2.227000000
H    -1.265000000    -4.864000000    -1.250000000
C     0.397000000    -3.273000000    -3.565000000
H     1.417000000    -2.902000000    -3.610000000
C    -0.468000000    -3.347000000    -4.644000000
O    -0.050000000    -2.879000000    -5.894000000
C    -1.681000000    -4.015000000    -4.492000000
H    -2.417000000    -4.028000000    -5.292000000
C    -2.032000000    -4.651000000    -3.270000000
O    -3.196000000    -5.298000000    -3.087000000
C    -3.731000000    -5.752000000    -1.856000000
C    -4.407000000    -4.880000000    -0.987000000
H    -4.468000000    -3.807000000    -1.149000000
C    -3.900000000    -7.151000000    -1.641000000
H    -3.330000000    -7.809000000    -2.292000000
C    -4.496000000    -7.631000000    -0.425000000
H    -4.474000000    -8.662000000    -0.080000000
C    -5.186000000    -6.679000000     0.395000000
H    -5.667000000    -7.065000000     1.291000000
C    -5.200000000    -5.304000000     0.093000000
O    -5.902000000    -4.413000000     0.863000000
C    -5.367000000    -3.354000000     1.558000000
C    -6.119000000    -2.275000000     1.882000000
H    -7.159000000    -2.223000000     1.571000000
C    -5.651000000    -1.188000000     2.587000000
O    -6.485000000    -0.132000000     2.772000000
C    -6.105000000     1.152000000     2.967000000
C    -5.504000000     1.858000000     1.997000000
H    -5.423000000     1.387000000     1.021000000
C    -6.261000000     1.705000000     4.232000000
H    -6.729000000     1.133000000     5.029000000
C    -5.872000000     3.021000000     4.429000000
H    -6.017000000     3.440000000     5.421000000
C    -5.226000000     3.734000000     3.406000000
H    -4.876000000     4.737000000     3.636000000
C    -4.963000000     3.096000000     2.184000000
O    -4.389000000     3.881000000     1.163000000
C    -3.091000000     4.412000000     1.063000000
C    -2.797000000     5.280000000     0.041000000
H    -3.589000000     5.699000000    -0.574000000
C    -1.512000000     5.657000000    -0.185000000
O    -1.258000000     6.623000000    -1.169000000
C     0.000000000     6.830000000    -1.712000000
C     0.541000000     5.997000000    -2.715000000
H    -0.059000000     5.130000000    -2.978000000
C     0.730000000     7.938000000    -1.369000000
H     0.198000000     8.679000000    -0.777000000
C     1.958000000     8.268000000    -2.042000000
H     2.406000000     9.251000000    -1.924000000
C     2.481000000     7.386000000    -2.957000000
H     3.383000000     7.651000000    -3.504000000
C     1.760000000     6.289000000    -3.344000000
O     2.201000000     5.516000000    -4.359000000
C     2.534000000     4.223000000    -4.190000000
C     2.278000000     3.499000000    -5.282000000
H     1.843000000     3.983000000    -6.152000000
C     2.457000000     2.120000000    -5.252000000
O     2.165000000     1.393000000    -6.409000000
C     2.136000000    -0.029000000    -6.523000000
C     3.207000000    -0.652000000    -7.147000000
H     4.022000000     0.002000000    -7.448000000
C     3.216000000    -2.045000000    -7.327000000
H     4.031000000    -2.573000000    -7.816000000
C     2.184000000    -2.781000000    -6.788000000
H     2.203000000    -3.862000000    -6.895000000
C     1.053000000    -2.137000000    -6.262000000
C     0.980000000    -0.761000000    -6.177000000
H     0.115000000    -0.219000000    -5.803000000
C    -1.075000000     2.153000000    -1.421000000
H    -1.059000000     3.151000000    -1.851000000
C    -0.021000000     1.868000000    -0.603000000
H     0.745000000     2.620000000    -0.432000000
C     0.121000000     0.711000000     0.107000000
H     0.944000000     0.532000000     0.784000000
C    -0.867000000    -0.215000000     0.067000000
H    -0.664000000    -1.124000000     0.628000000
C    -2.036000000    -0.023000000    -0.692000000
H    -2.773000000    -0.819000000    -0.766000000
C    -2.078000000     1.173000000    -1.557000000
C    -3.213000000     1.511000000    -2.530000000
O    -3.934000000     0.599000000    -2.972000000
O    -3.358000000     2.615000000    -3.057000000
O    -3.892000000    -1.699000000    -4.599000000
H    -3.533000000    -1.167000000    -3.888000000
H    -3.307000000    -1.535000000    -5.339000000
O    -2.998000000     5.132000000    -3.210000000
H    -3.701000000     5.551000000    -2.713000000
H    -3.223000000     4.202000000    -3.205000000
O    -6.451000000     4.801000000    -5.195000000
H    -5.958000000     4.136000000    -5.675000000
H    -7.325000000     4.424000000    -5.093000000
O    -2.343000000    -1.576000000    -7.038000000
H    -1.399000000    -1.725000000    -6.995000000
H    -2.584000000    -1.819000000    -7.932000000
O    -3.769000000     5.139000000    -7.254000000
H    -3.152000000     4.975000000    -7.967000000
H    -3.806000000     4.311000000    -6.774000000
O    -6.125000000     2.317000000    -2.625000000
H    -5.841000000     3.055000000    -2.085000000
H    -5.311000000     1.895000000    -2.900000000
O    -8.194000000     0.655000000     0.051000000
H    -7.614000000    -0.071000000    -0.177000000
H    -8.230000000     1.191000000    -0.742000000
O    -5.794000000     5.575000000    -2.511000000
H    -5.731000000     6.502000000    -2.741000000
H    -6.097000000     5.149000000    -3.313000000
O    -8.822000000     2.171000000    -3.241000000
H    -8.901000000     2.856000000    -3.905000000
H    -7.883000000     2.115000000    -3.066000000
O    -2.349000000     7.377000000    -4.860000000
H    -2.571000000     6.575000000    -4.387000000
H    -1.774000000     7.086000000    -5.568000000
O    -6.522000000    -2.119000000    -6.495000000
H    -6.966000000    -2.960000000    -6.596000000
H    -5.591000000    -2.329000000    -6.569000000
O    -7.529000000    -2.869000000    -2.207000000
H    -8.213000000    -2.892000000    -2.876000000
H    -6.751000000    -3.210000000    -2.647000000
O    -7.527000000     2.048000000    -6.490000000
H    -7.018000000     1.745000000    -5.738000000
H    -7.385000000     1.380000000    -7.160000000
O    -6.039000000     0.520000000    -4.801000000
H    -5.208000000     0.341000000    -4.360000000
H    -6.166000000    -0.228000000    -5.385000000
O    -5.842000000    -0.811000000    -1.328000000
H    -5.341000000    -0.460000000    -2.064000000
H    -6.323000000    -1.552000000    -1.698000000
O    -4.260000000     2.907000000    -5.485000000
H    -3.776000000     2.711000000    -4.683000000
H    -4.928000000     2.224000000    -5.534000000
O    -1.151000000     2.241000000    -6.821000000
H    -1.477000000     2.918000000    -6.227000000
H    -1.911000000     2.003000000    -7.353000000
O    -6.449000000     6.399000000     0.147000000
H    -5.697000000     6.539000000     0.723000000
H    -6.064000000     6.235000000    -0.714000000
O    -5.447000000    -3.627000000    -3.640000000
H    -5.009000000    -2.894000000    -4.072000000
H    -4.762000000    -4.287000000    -3.533000000
