215
-1466.47054
C    -3.919000000    -0.574000000     3.245000000
H    -3.328000000     0.205000000     3.719000000
C    -3.146000000    -1.721000000     2.960000000
C    -3.759000000    -2.856000000     2.369000000
H    -3.232000000    -3.790000000     2.196000000
C    -1.674000000    -1.747000000     3.387000000
O    -1.413000000    -0.897000000     4.508000000
H    -1.053000000    -1.331000000     2.580000000
O    -1.295000000    -3.073000000     3.666000000
C    -0.086000000    -3.470000000     3.145000000
C    -0.087000000    -4.156000000     1.956000000
H    -1.000000000    -4.470000000     1.454000000
C     1.055000000    -4.311000000     1.179000000
O     0.874000000    -4.795000000    -0.109000000
C     2.286000000    -3.912000000     1.779000000
C     3.512000000    -4.169000000     0.894000000
H     4.350000000    -4.290000000     1.584000000
C     3.784000000    -3.053000000    -0.073000000
C     4.589000000    -1.975000000     0.318000000
H     5.109000000    -1.933000000     1.271000000
H     3.430000000    -5.154000000     0.429000000
C     2.304000000    -3.318000000     3.027000000
H     3.217000000    -2.833000000     3.364000000
C     1.111000000    -3.018000000     3.751000000
C     1.057000000    -2.109000000     5.033000000
H     1.977000000    -2.197000000     5.614000000
H     0.265000000    -2.453000000     5.701000000
C     0.950000000    -0.656000000     4.657000000
C     2.106000000     0.121000000     4.588000000
H     3.004000000    -0.472000000     4.740000000
C    -0.301000000    -0.055000000     4.437000000
C    -0.360000000     1.292000000     4.195000000
H    -1.356000000     1.710000000     4.075000000
C     0.818000000     2.035000000     4.073000000
O     0.621000000     3.342000000     3.759000000
C     0.788000000     3.657000000     2.290000000
C    -0.418000000     4.553000000     1.865000000
C    -0.188000000     5.633000000     1.044000000
H     0.827000000     5.921000000     0.782000000
C    -1.692000000     4.272000000     2.183000000
H    -1.910000000     3.346000000     2.709000000
O     2.102000000     4.167000000     2.067000000
H     0.749000000     2.689000000     1.770000000
C     2.084000000     1.454000000     4.186000000
C     3.386000000     2.272000000     3.950000000
H     4.194000000     1.823000000     4.532000000
H     3.296000000     3.271000000     4.382000000
C     3.756000000     2.378000000     2.468000000
C     4.660000000     1.472000000     1.945000000
H     4.998000000     0.740000000     2.675000000
C     3.155000000     3.341000000     1.693000000
C     3.466000000     3.352000000     0.334000000
H     2.896000000     4.039000000    -0.287000000
C     4.273000000     2.368000000    -0.292000000
O     4.259000000     2.281000000    -1.666000000
C     3.441000000     1.273000000    -2.297000000
C     2.596000000     1.799000000    -3.435000000
C     1.843000000     2.926000000    -3.202000000
H     1.685000000     3.458000000    -2.267000000
C     2.520000000     1.161000000    -4.683000000
H     3.093000000     0.293000000    -4.999000000
O     4.284000000     0.157000000    -2.692000000
H     2.668000000     1.044000000    -1.549000000
C     4.937000000     1.394000000     0.519000000
C     5.691000000     0.189000000    -0.002000000
H     6.385000000    -0.179000000     0.756000000
H     6.398000000     0.525000000    -0.764000000
C     4.800000000    -0.866000000    -0.518000000
C     4.295000000    -0.944000000    -1.852000000
C     3.444000000    -1.972000000    -2.233000000
H     2.945000000    -1.931000000    -3.197000000
C     3.203000000    -3.044000000    -1.344000000
O     2.289000000    -4.084000000    -1.711000000
C     0.926000000    -3.935000000    -1.165000000
H     0.608000000    -2.920000000    -0.885000000
C    -0.100000000    -4.375000000    -2.253000000
C    -1.343000000    -4.971000000    -1.968000000
H    -1.472000000    -5.133000000    -0.901000000
C     0.093000000    -3.823000000    -3.479000000
H     1.012000000    -3.282000000    -3.686000000
C    -0.906000000    -3.929000000    -4.474000000
O    -0.804000000    -3.166000000    -5.631000000
C    -2.091000000    -4.561000000    -4.242000000
H    -2.913000000    -4.633000000    -4.949000000
C    -2.390000000    -4.970000000    -2.938000000
O    -3.711000000    -5.264000000    -2.595000000
C    -4.111000000    -5.591000000    -1.350000000
C    -4.665000000    -4.553000000    -0.557000000
H    -4.712000000    -3.541000000    -0.949000000
C    -4.116000000    -6.882000000    -0.818000000
H    -3.904000000    -7.713000000    -1.486000000
C    -4.567000000    -7.112000000     0.470000000
H    -4.534000000    -8.162000000     0.751000000
C    -5.150000000    -6.111000000     1.239000000
H    -5.581000000    -6.398000000     2.194000000
C    -5.146000000    -4.785000000     0.719000000
O    -5.780000000    -3.857000000     1.482000000
C    -5.087000000    -2.789000000     2.052000000
C    -5.842000000    -1.658000000     2.419000000
H    -6.904000000    -1.747000000     2.201000000
C    -5.293000000    -0.543000000     2.982000000
O    -6.103000000     0.437000000     3.453000000
C    -5.767000000     1.779000000     3.611000000
C    -5.006000000     2.486000000     2.675000000
H    -4.784000000     1.926000000     1.770000000
C    -6.058000000     2.432000000     4.788000000
H    -6.558000000     1.948000000     5.624000000
C    -5.729000000     3.825000000     4.998000000
H    -6.087000000     4.350000000     5.879000000
C    -5.022000000     4.493000000     3.989000000
H    -4.820000000     5.561000000     4.006000000
C    -4.663000000     3.820000000     2.888000000
O    -4.068000000     4.527000000     1.793000000
C    -2.792000000     4.995000000     1.725000000
C    -2.534000000     6.067000000     0.844000000
H    -3.401000000     6.498000000     0.349000000
C    -1.254000000     6.383000000     0.529000000
O    -0.913000000     7.372000000    -0.438000000
C    -0.123000000     7.090000000    -1.555000000
C    -0.454000000     5.987000000    -2.421000000
H    -1.338000000     5.378000000    -2.248000000
C     1.058000000     7.773000000    -1.785000000
H     1.355000000     8.582000000    -1.123000000
C     1.870000000     7.394000000    -2.861000000
H     2.760000000     7.971000000    -3.098000000
C     1.589000000     6.285000000    -3.656000000
H     2.247000000     6.026000000    -4.482000000
C     0.381000000     5.548000000    -3.412000000
O     0.200000000     4.476000000    -4.172000000
C     1.105000000     3.457000000    -4.293000000
C     0.993000000     2.750000000    -5.542000000
H     0.349000000     3.030000000    -6.373000000
C     1.703000000     1.592000000    -5.718000000
O     1.590000000     0.814000000    -6.885000000
C     1.571000000    -0.558000000    -6.841000000
C     2.582000000    -1.369000000    -7.321000000
H     3.482000000    -0.973000000    -7.785000000
C     2.547000000    -2.721000000    -7.106000000
H     3.402000000    -3.318000000    -7.415000000
C     1.521000000    -3.293000000    -6.471000000
H     1.647000000    -4.349000000    -6.243000000
C     0.352000000    -2.547000000    -6.160000000
C     0.429000000    -1.131000000    -6.311000000
H    -0.403000000    -0.504000000    -6.001000000
C    -1.422000000     1.593000000    -0.682000000
H    -1.885000000     2.536000000    -0.962000000
C    -0.071000000     1.318000000    -0.470000000
H     0.734000000     1.996000000    -0.743000000
C     0.297000000     0.070000000     0.080000000
H     1.380000000    -0.063000000     0.173000000
C    -0.660000000    -0.941000000     0.218000000
H    -0.332000000    -1.922000000     0.552000000
C    -1.965000000    -0.695000000    -0.273000000
H    -2.640000000    -1.540000000    -0.375000000
C    -2.409000000     0.547000000    -0.617000000
C    -3.899000000     0.815000000    -0.893000000
O    -4.585000000    -0.019000000    -1.499000000
O    -4.251000000     1.983000000    -0.858000000
O    -4.762000000    -0.591000000    -4.176000000
H    -4.443000000    -0.430000000    -3.287000000
H    -3.968000000    -0.643000000    -4.709000000
O    -9.079000000     1.984000000     3.140000000
H    -8.751000000     1.620000000     2.318000000
H    -8.293000000     2.259000000     3.612000000
O    -3.632000000     4.570000000    -1.554000000
H    -4.428000000     5.098000000    -1.496000000
H    -3.942000000     3.665000000    -1.525000000
O    -6.605000000     4.450000000    -4.177000000
H    -7.528000000     4.196000000    -4.187000000
H    -6.145000000     3.695000000    -4.543000000
O    -2.955000000    -1.387000000    -6.145000000
H    -2.404000000    -2.119000000    -5.868000000
H    -3.659000000    -1.795000000    -6.649000000
O    -6.747000000     3.029000000    -0.335000000
H    -6.831000000     3.746000000    -0.964000000
H    -5.963000000     2.556000000    -0.615000000
O    -8.018000000     1.018000000     0.695000000
H    -7.451000000     0.310000000     0.389000000
H    -7.569000000     1.818000000     0.424000000
O    -6.338000000     5.598000000    -1.628000000
H    -6.232000000     6.548000000    -1.682000000
H    -6.605000000     5.336000000    -2.509000000
O    -3.557000000     7.297000000    -2.422000000
H    -3.238000000     6.505000000    -1.988000000
H    -3.320000000     7.178000000    -3.342000000
O    -6.016000000    -3.001000000    -4.369000000
H    -5.609000000    -2.162000000    -4.153000000
H    -6.010000000    -3.030000000    -5.326000000
O    -7.896000000    -2.226000000    -2.546000000
H    -8.447000000    -1.499000000    -2.835000000
H    -7.536000000    -2.591000000    -3.355000000
O   -10.026000000    -0.785000000     0.501000000
H   -10.611000000    -0.512000000     1.207000000
H    -9.187000000    -0.374000000     0.713000000
O    -9.051000000     0.242000000    -2.525000000
H    -9.553000000     0.691000000    -1.844000000
H    -8.165000000     0.595000000    -2.441000000
O    -6.698000000    -1.029000000    -0.389000000
H    -5.814000000    -0.833000000    -0.698000000
H    -7.099000000    -1.521000000    -1.106000000
O    -5.953000000     0.368000000    -7.321000000
H    -5.391000000     0.781000000    -7.976000000
H    -5.500000000     0.513000000    -6.491000000
O    -9.021000000    -3.294000000     0.159000000
H    -8.666000000    -3.198000000    -0.724000000
H    -9.401000000    -2.438000000     0.359000000
O    -5.375000000     1.986000000    -3.553000000
H    -4.968000000     1.950000000    -2.687000000
H    -5.348000000     1.082000000    -3.868000000
O    -2.744000000     3.595000000    -5.179000000
H    -2.879000000     2.768000000    -5.642000000
H    -2.902000000     3.383000000    -4.259000000
O    -7.769000000     4.765000000     1.502000000
H    -6.952000000     5.221000000     1.707000000
H    -7.520000000     4.111000000     0.850000000
