215
-1453.88038
C    -3.053000000     0.087000000     3.733000000
H    -2.414000000     0.740000000     4.322000000
C    -2.612000000    -1.203000000     3.410000000
C    -3.515000000    -2.029000000     2.694000000
H    -3.136000000    -2.946000000     2.251000000
C    -1.193000000    -1.625000000     3.637000000
O    -0.519000000    -0.904000000     4.726000000
H    -0.673000000    -1.321000000     2.717000000
O    -0.949000000    -3.070000000     3.759000000
C     0.024000000    -3.619000000     2.992000000
C    -0.351000000    -4.283000000     1.826000000
H    -1.384000000    -4.354000000     1.495000000
C     0.662000000    -4.675000000     0.920000000
O     0.194000000    -5.114000000    -0.290000000
C     2.013000000    -4.405000000     1.190000000
C     3.066000000    -4.763000000     0.136000000
H     4.088000000    -4.942000000     0.478000000
C     3.234000000    -3.636000000    -0.897000000
C     4.215000000    -2.671000000    -0.616000000
H     4.883000000    -2.793000000     0.233000000
H     2.784000000    -5.685000000    -0.377000000
C     2.377000000    -3.852000000     2.469000000
H     3.434000000    -3.613000000     2.564000000
C     1.335000000    -3.454000000     3.331000000
C     1.744000000    -2.731000000     4.611000000
H     2.734000000    -3.081000000     4.912000000
H     1.032000000    -2.929000000     5.415000000
C     1.855000000    -1.193000000     4.394000000
C     3.063000000    -0.625000000     4.048000000
H     3.985000000    -1.182000000     3.898000000
C     0.738000000    -0.398000000     4.460000000
C     0.803000000     0.963000000     4.275000000
H    -0.096000000     1.562000000     4.399000000
C     1.998000000     1.542000000     3.904000000
O     1.971000000     2.909000000     3.671000000
C     1.829000000     3.346000000     2.296000000
C     0.713000000     4.367000000     2.009000000
C     0.593000000     4.960000000     0.729000000
H     1.325000000     4.674000000    -0.022000000
C    -0.163000000     4.655000000     3.045000000
H    -0.055000000     4.180000000     4.016000000
O     3.126000000     3.649000000     1.760000000
H     1.442000000     2.520000000     1.681000000
C     3.097000000     0.736000000     3.736000000
C     4.382000000     1.469000000     3.147000000
H     5.312000000     0.928000000     3.335000000
H     4.462000000     2.412000000     3.693000000
C     4.267000000     1.521000000     1.622000000
C     4.904000000     0.511000000     0.838000000
H     5.307000000    -0.377000000     1.319000000
C     3.741000000     2.626000000     0.968000000
C     3.675000000     2.718000000    -0.410000000
H     3.125000000     3.458000000    -0.987000000
C     4.266000000     1.698000000    -1.144000000
O     4.025000000     1.761000000    -2.540000000
C     2.999000000     0.925000000    -3.055000000
C     2.129000000     1.663000000    -4.134000000
C     1.855000000     3.064000000    -4.037000000
H     2.351000000     3.631000000    -3.254000000
C     1.509000000     0.928000000    -5.142000000
H     1.785000000    -0.123000000    -5.141000000
O     3.604000000    -0.404000000    -3.427000000
H     2.318000000     0.673000000    -2.229000000
C     4.883000000     0.614000000    -0.551000000
C     5.477000000    -0.562000000    -1.263000000
H     6.210000000    -0.966000000    -0.562000000
H     5.987000000    -0.184000000    -2.152000000
C     4.381000000    -1.611000000    -1.500000000
C     3.461000000    -1.438000000    -2.557000000
C     2.510000000    -2.372000000    -2.815000000
H     1.911000000    -2.100000000    -3.681000000
C     2.388000000    -3.499000000    -1.986000000
O     1.411000000    -4.395000000    -2.206000000
C     0.199000000    -4.221000000    -1.387000000
H     0.264000000    -3.231000000    -0.911000000
C    -1.123000000    -4.166000000    -2.120000000
C    -2.246000000    -4.715000000    -1.531000000
H    -2.105000000    -5.169000000    -0.553000000
C    -1.278000000    -3.368000000    -3.268000000
H    -0.426000000    -2.951000000    -3.799000000
C    -2.550000000    -3.222000000    -3.929000000
O    -2.725000000    -2.404000000    -5.066000000
C    -3.630000000    -3.823000000    -3.349000000
H    -4.561000000    -3.931000000    -3.900000000
C    -3.445000000    -4.612000000    -2.237000000
O    -4.557000000    -5.281000000    -1.753000000
C    -4.984000000    -5.123000000    -0.427000000
C    -5.103000000    -3.837000000     0.157000000
H    -4.863000000    -2.969000000    -0.452000000
C    -5.204000000    -6.249000000     0.316000000
H    -5.045000000    -7.227000000    -0.130000000
C    -5.657000000    -6.133000000     1.630000000
H    -5.822000000    -7.016000000     2.242000000
C    -5.812000000    -4.892000000     2.255000000
H    -6.127000000    -4.798000000     3.291000000
C    -5.521000000    -3.745000000     1.510000000
O    -5.777000000    -2.518000000     1.987000000
C    -4.873000000    -1.686000000     2.558000000
C    -5.307000000    -0.493000000     3.040000000
H    -6.356000000    -0.218000000     3.118000000
C    -4.442000000     0.470000000     3.618000000
O    -4.914000000     1.712000000     4.133000000
C    -4.102000000     2.643000000     4.690000000
C    -3.543000000     3.762000000     3.946000000
H    -3.791000000     3.763000000     2.888000000
C    -3.846000000     2.617000000     6.034000000
H    -4.285000000     1.783000000     6.577000000
C    -2.975000000     3.482000000     6.630000000
H    -2.756000000     3.313000000     7.681000000
C    -2.492000000     4.606000000     5.919000000
H    -2.009000000     5.449000000     6.405000000
C    -2.743000000     4.716000000     4.574000000
O    -2.223000000     5.711000000     3.777000000
C    -1.270000000     5.458000000     2.850000000
C    -1.419000000     6.042000000     1.568000000
H    -2.250000000     6.716000000     1.371000000
C    -0.486000000     5.761000000     0.492000000
O    -0.825000000     6.343000000    -0.712000000
C     0.063000000     6.603000000    -1.666000000
C    -0.028000000     5.827000000    -2.812000000
H    -0.847000000     5.120000000    -2.918000000
C     1.161000000     7.434000000    -1.479000000
H     1.253000000     8.123000000    -0.642000000
C     2.172000000     7.560000000    -2.463000000
H     3.057000000     8.173000000    -2.312000000
C     2.061000000     6.761000000    -3.658000000
H     2.872000000     6.950000000    -4.357000000
C     0.940000000     5.937000000    -3.772000000
O     0.796000000     5.042000000    -4.858000000
C     0.959000000     3.668000000    -4.865000000
C     0.402000000     2.973000000    -5.935000000
H    -0.233000000     3.419000000    -6.697000000
C     0.621000000     1.561000000    -6.017000000
O     0.103000000     0.821000000    -7.033000000
C    -0.332000000    -0.469000000    -6.978000000
C    -0.072000000    -1.331000000    -8.014000000
H     0.679000000    -1.120000000    -8.771000000
C    -0.752000000    -2.581000000    -8.117000000
H    -0.611000000    -3.201000000    -8.999000000
C    -1.529000000    -3.001000000    -7.032000000
H    -2.125000000    -3.908000000    -7.079000000
C    -1.717000000    -2.156000000    -5.943000000
C    -1.183000000    -0.860000000    -6.009000000
H    -1.573000000    -0.047000000    -5.403000000
C    -1.393000000     1.430000000    -1.836000000
H    -1.546000000     2.216000000    -2.572000000
C    -0.310000000     1.457000000    -0.919000000
H     0.464000000     2.203000000    -1.085000000
C    -0.220000000     0.526000000     0.068000000
H     0.562000000     0.601000000     0.777000000
C    -1.107000000    -0.550000000     0.027000000
H    -0.979000000    -1.350000000     0.751000000
C    -2.102000000    -0.623000000    -0.910000000
H    -2.644000000    -1.564000000    -0.933000000
C    -2.313000000     0.372000000    -1.831000000
C    -3.419000000     0.327000000    -2.817000000
O    -4.191000000    -0.560000000    -2.788000000
O    -3.584000000     1.255000000    -3.634000000
O    -5.517000000     0.061000000    -0.357000000
H    -5.171000000    -0.102000000    -1.235000000
H    -5.430000000    -0.778000000     0.094000000
O    -8.574000000    -1.968000000    -1.344000000
H    -9.181000000    -2.051000000    -2.079000000
H    -7.706000000    -2.050000000    -1.740000000
O    -2.907000000     2.122000000    -6.348000000
H    -2.728000000     1.794000000    -5.466000000
H    -3.337000000     1.391000000    -6.792000000
O    -7.409000000     5.661000000    -1.972000000
H    -7.770000000     5.119000000    -2.673000000
H    -6.947000000     5.044000000    -1.405000000
O    -3.611000000    -0.299000000    -7.930000000
H    -3.105000000    -0.433000000    -8.732000000
H    -4.495000000    -0.591000000    -8.154000000
O    -3.047000000     6.213000000    -4.875000000
H    -3.198000000     5.538000000    -4.213000000
H    -3.713000000     6.877000000    -4.697000000
O    -3.386000000     4.379000000    -0.475000000
H    -3.011000000     3.663000000     0.039000000
H    -4.314000000     4.381000000    -0.239000000
O    -4.087000000     4.296000000    -2.973000000
H    -4.408000000     3.395000000    -2.976000000
H    -3.665000000     4.397000000    -2.119000000
O    -7.889000000    -0.389000000    -6.412000000
H    -7.086000000    -0.767000000    -6.054000000
H    -8.583000000    -0.717000000    -5.840000000
O    -5.389000000     3.427000000    -6.577000000
H    -5.508000000     2.843000000    -5.829000000
H    -4.478000000     3.296000000    -6.841000000
O    -6.042000000     1.714000000    -4.318000000
H    -5.169000000     1.400000000    -4.082000000
H    -6.379000000     1.051000000    -4.922000000
O    -6.247000000    -2.124000000    -2.658000000
H    -6.341000000    -2.200000000    -3.608000000
H    -5.461000000    -1.592000000    -2.537000000
O    -3.133000000     1.927000000     1.250000000
H    -2.496000000     1.388000000     0.780000000
H    -3.984000000     1.573000000     0.991000000
O    -7.571000000     1.617000000    -0.019000000
H    -7.066000000     0.843000000    -0.268000000
H    -8.022000000     1.361000000     0.785000000
O    -5.996000000     4.226000000     0.259000000
H    -6.192000000     4.833000000     0.972000000
H    -6.611000000     3.502000000     0.384000000
O    -4.771000000    -4.622000000    -6.230000000
H    -5.263000000    -4.387000000    -7.017000000
H    -5.387000000    -4.483000000    -5.511000000
O    -2.291000000     4.866000000    -7.291000000
H    -2.448000000     3.949000000    -7.066000000
H    -2.672000000     5.359000000    -6.565000000
O    -5.271000000    -0.800000000    -5.347000000
H    -4.950000000    -0.705000000    -4.450000000
H    -4.479000000    -0.876000000    -5.878000000
O    -8.198000000     3.800000000    -4.088000000
H    -8.994000000     3.296000000    -4.257000000
H    -7.505000000     3.142000000    -4.029000000
