215
-1447.65125
C    -3.646000000    -2.264000000     3.675000000
H    -3.307000000    -1.523000000     4.393000000
C    -2.787000000    -3.204000000     3.113000000
C    -3.249000000    -4.062000000     2.118000000
H    -2.481000000    -4.644000000     1.615000000
C    -1.270000000    -3.014000000     3.296000000
O    -0.873000000    -2.458000000     4.523000000
H    -0.843000000    -2.379000000     2.506000000
O    -0.627000000    -4.326000000     3.128000000
C     0.530000000    -4.338000000     2.381000000
C     0.351000000    -4.560000000     0.976000000
H    -0.626000000    -4.871000000     0.616000000
C     1.421000000    -4.264000000     0.106000000
O     1.263000000    -4.385000000    -1.222000000
C     2.671000000    -4.083000000     0.664000000
C     3.902000000    -3.988000000    -0.175000000
H     4.812000000    -4.173000000     0.401000000
C     4.004000000    -2.584000000    -0.785000000
C     4.716000000    -1.573000000    -0.179000000
H     5.083000000    -1.837000000     0.810000000
H     3.868000000    -4.757000000    -0.950000000
C     2.883000000    -3.904000000     2.050000000
H     3.816000000    -3.645000000     2.544000000
C     1.777000000    -3.935000000     2.886000000
C     1.837000000    -3.491000000     4.332000000
H     2.821000000    -3.811000000     4.682000000
H     1.117000000    -4.157000000     4.813000000
C     1.526000000    -1.990000000     4.512000000
C     2.525000000    -1.074000000     4.428000000
H     3.543000000    -1.361000000     4.179000000
C     0.210000000    -1.584000000     4.694000000
C    -0.081000000    -0.275000000     4.967000000
H    -1.115000000     0.009000000     5.144000000
C     0.950000000     0.693000000     4.899000000
O     0.467000000     1.985000000     4.678000000
C     0.688000000     2.554000000     3.312000000
C    -0.565000000     3.212000000     2.674000000
C    -0.516000000     4.464000000     2.096000000
H     0.413000000     5.021000000     2.183000000
C    -1.766000000     2.434000000     2.460000000
H    -1.922000000     1.419000000     2.815000000
O     1.796000000     3.437000000     3.420000000
H     1.021000000     1.736000000     2.657000000
C     2.278000000     0.304000000     4.659000000
C     3.340000000     1.370000000     4.607000000
H     4.249000000     0.894000000     4.980000000
H     3.162000000     2.166000000     5.333000000
C     3.535000000     1.906000000     3.194000000
C     4.353000000     1.156000000     2.375000000
H     4.758000000     0.249000000     2.817000000
C     2.880000000     3.015000000     2.728000000
C     3.051000000     3.380000000     1.389000000
H     2.511000000     4.236000000     0.994000000
C     3.984000000     2.729000000     0.560000000
O     4.077000000     3.043000000    -0.755000000
C     3.275000000     2.203000000    -1.646000000
C     2.359000000     3.084000000    -2.518000000
C     2.149000000     4.487000000    -2.298000000
H     2.626000000     4.950000000    -1.438000000
C     1.629000000     2.455000000    -3.513000000
H     1.740000000     1.412000000    -3.798000000
O     4.068000000     1.303000000    -2.406000000
H     2.556000000     1.574000000    -1.101000000
C     4.584000000     1.541000000     1.042000000
C     5.550000000     0.723000000     0.138000000
H     6.314000000     0.201000000     0.718000000
H     6.035000000     1.385000000    -0.581000000
C     4.814000000    -0.285000000    -0.693000000
C     4.097000000     0.029000000    -1.854000000
C     3.453000000    -0.977000000    -2.580000000
H     2.877000000    -0.738000000    -3.470000000
C     3.396000000    -2.274000000    -2.023000000
O     2.570000000    -3.193000000    -2.569000000
C     1.203000000    -3.230000000    -2.052000000
H     1.040000000    -2.343000000    -1.422000000
C     0.166000000    -3.235000000    -3.172000000
C    -1.116000000    -3.733000000    -2.897000000
H    -1.251000000    -4.146000000    -1.900000000
C     0.325000000    -2.522000000    -4.419000000
H     1.311000000    -2.168000000    -4.708000000
C    -0.726000000    -2.398000000    -5.323000000
O    -0.676000000    -1.833000000    -6.556000000
C    -1.888000000    -3.117000000    -5.072000000
H    -2.682000000    -2.920000000    -5.787000000
C    -2.125000000    -3.635000000    -3.850000000
O    -3.384000000    -4.106000000    -3.663000000
C    -3.608000000    -4.991000000    -2.628000000
C    -4.238000000    -4.570000000    -1.440000000
H    -4.747000000    -3.612000000    -1.358000000
C    -3.053000000    -6.255000000    -2.739000000
H    -2.642000000    -6.537000000    -3.704000000
C    -3.133000000    -7.097000000    -1.633000000
H    -2.665000000    -8.078000000    -1.597000000
C    -3.731000000    -6.653000000    -0.436000000
H    -3.919000000    -7.265000000     0.442000000
C    -4.332000000    -5.397000000    -0.355000000
O    -5.061000000    -5.019000000     0.767000000
C    -4.592000000    -4.191000000     1.751000000
C    -5.483000000    -3.315000000     2.362000000
H    -6.546000000    -3.304000000     2.136000000
C    -5.017000000    -2.343000000     3.224000000
O    -5.923000000    -1.394000000     3.719000000
C    -5.822000000    -0.033000000     3.441000000
C    -4.789000000     0.450000000     2.637000000
H    -4.196000000    -0.263000000     2.069000000
C    -6.681000000     0.821000000     4.108000000
H    -7.568000000     0.458000000     4.622000000
C    -6.515000000     2.192000000     3.944000000
H    -7.191000000     2.854000000     4.478000000
C    -5.498000000     2.744000000     3.120000000
H    -5.312000000     3.814000000     3.066000000
C    -4.656000000     1.780000000     2.456000000
O    -3.827000000     2.194000000     1.473000000
C    -2.785000000     3.044000000     1.762000000
C    -2.671000000     4.320000000     1.138000000
H    -3.633000000     4.584000000     0.706000000
C    -1.524000000     5.047000000     1.334000000
O    -1.577000000     6.348000000     1.052000000
C    -0.650000000     7.051000000     0.281000000
C    -0.166000000     6.453000000    -0.830000000
H    -0.516000000     5.474000000    -1.146000000
C    -0.459000000     8.438000000     0.385000000
H    -0.999000000     8.896000000     1.209000000
C     0.253000000     9.180000000    -0.494000000
H     0.320000000    10.256000000    -0.354000000
C     0.823000000     8.519000000    -1.549000000
H     1.389000000     9.102000000    -2.271000000
C     0.610000000     7.158000000    -1.740000000
O     1.055000000     6.553000000    -2.941000000
C     1.278000000     5.252000000    -3.115000000
C     0.680000000     4.597000000    -4.177000000
H     0.074000000     5.047000000    -4.960000000
C     0.770000000     3.210000000    -4.288000000
O     0.073000000     2.593000000    -5.284000000
C     0.476000000     1.462000000    -5.990000000
C     1.337000000     1.601000000    -7.125000000
H     1.891000000     2.514000000    -7.329000000
C     1.474000000     0.547000000    -8.058000000
H     2.093000000     0.760000000    -8.926000000
C     0.777000000    -0.648000000    -7.879000000
H     0.707000000    -1.442000000    -8.618000000
C    -0.069000000    -0.673000000    -6.803000000
C    -0.228000000     0.302000000    -5.836000000
H    -0.884000000     0.143000000    -4.984000000
C    -1.214000000     1.095000000    -1.417000000
H    -1.635000000     1.873000000    -2.049000000
C    -0.035000000     1.331000000    -0.673000000
H     0.559000000     2.239000000    -0.734000000
C     0.436000000     0.402000000     0.180000000
H     1.351000000     0.614000000     0.779000000
C    -0.150000000    -0.813000000     0.245000000
H     0.364000000    -1.621000000     0.760000000
C    -1.369000000    -1.020000000    -0.395000000
H    -1.817000000    -2.004000000    -0.292000000
C    -1.917000000    -0.125000000    -1.274000000
C    -3.312000000    -0.271000000    -1.853000000
O    -3.930000000    -1.303000000    -1.664000000
O    -3.844000000     0.622000000    -2.465000000
O    -5.113000000    -1.775000000    -3.977000000
H    -4.540000000    -2.489000000    -4.257000000
H    -4.695000000    -1.428000000    -3.189000000
O    -5.339000000    -5.678000000    -5.814000000
H    -4.740000000    -5.586000000    -6.554000000
H    -4.767000000    -5.760000000    -5.051000000
O    -8.552000000     3.677000000     1.095000000
H    -8.192000000     2.796000000     0.992000000
H    -9.211000000     3.587000000     1.784000000
O    -8.066000000     1.335000000    -4.658000000
H    -8.838000000     1.854000000    -4.884000000
H    -7.327000000     1.855000000    -4.974000000
O    -5.503000000     2.191000000    -0.968000000
H    -4.979000000     1.693000000    -1.596000000
H    -5.406000000     1.713000000    -0.144000000
O    -6.511000000     3.386000000    -5.595000000
H    -5.706000000     3.299000000    -5.085000000
H    -6.235000000     3.257000000    -6.503000000
O    -7.589000000     0.979000000     1.292000000
H    -7.361000000     0.089000000     1.023000000
H    -7.112000000     1.111000000     2.111000000
O    -9.803000000     2.667000000    -2.899000000
H   -10.589000000     2.197000000    -3.175000000
H    -9.141000000     1.984000000    -2.791000000
O    -5.874000000     4.772000000    -1.520000000
H    -6.451000000     5.061000000    -0.814000000
H    -5.760000000     3.834000000    -1.367000000
O    -4.486000000     0.042000000    -7.629000000
H    -5.299000000    -0.428000000    -7.445000000
H    -4.723000000     0.677000000    -8.305000000
O    -7.096000000    -1.025000000    -5.793000000
H    -6.451000000    -1.401000000    -5.193000000
H    -7.420000000    -0.247000000    -5.340000000
O    -8.648000000    -3.487000000    -0.977000000
H    -9.039000000    -4.177000000    -1.513000000
H    -8.409000000    -3.925000000    -0.160000000
O    -9.819000000    -1.094000000    -1.136000000
H    -9.333000000    -1.919000000    -1.151000000
H    -9.147000000    -0.419000000    -1.239000000
O    -7.675000000     0.541000000    -2.131000000
H    -7.067000000     1.189000000    -1.776000000
H    -7.863000000     0.848000000    -3.018000000
O    -6.035000000    -1.243000000    -0.287000000
H    -5.193000000    -1.390000000    -0.716000000
H    -6.525000000    -0.695000000    -0.902000000
O    -7.786000000    -3.519000000    -3.760000000
H    -6.868000000    -3.284000000    -3.892000000
H    -7.974000000    -3.256000000    -2.859000000
O    -3.647000000     6.204000000    -2.156000000
H    -3.791000000     6.986000000    -1.622000000
H    -4.417000000     5.658000000    -1.994000000
O    -4.926000000     1.334000000    -4.681000000
H    -4.596000000     1.143000000    -3.803000000
H    -5.332000000     0.516000000    -4.967000000
O    -3.222000000     2.789000000    -6.581000000
H    -2.398000000     2.915000000    -6.109000000
H    -3.598000000     1.996000000    -6.200000000
