215
-1458.14716
C     4.060000000    -3.465000000    -1.849000000
H     3.173000000    -4.094000000    -1.822000000
C     4.423000000    -2.650000000    -0.770000000
C     5.258000000    -1.534000000    -1.017000000
H     5.387000000    -0.791000000    -0.234000000
C     3.691000000    -2.786000000     0.633000000
O     3.122000000    -4.072000000     0.916000000
H     2.811000000    -2.151000000     0.458000000
O     4.406000000    -2.219000000     1.720000000
C     3.740000000    -1.361000000     2.487000000
C     3.782000000     0.024000000     2.172000000
H     4.477000000     0.331000000     1.395000000
C     3.154000000     0.902000000     3.032000000
O     3.242000000     2.206000000     2.676000000
C     2.406000000     0.566000000     4.127000000
C     1.617000000     1.569000000     4.955000000
H     1.332000000     1.176000000     5.933000000
C     0.300000000     1.986000000     4.290000000
C    -0.862000000     1.352000000     4.663000000
H    -0.817000000     0.536000000     5.379000000
H     2.110000000     2.535000000     5.087000000
C     2.339000000    -0.780000000     4.412000000
H     1.677000000    -1.172000000     5.181000000
C     2.982000000    -1.794000000     3.639000000
C     2.784000000    -3.270000000     3.859000000
H     2.655000000    -3.396000000     4.936000000
H     3.646000000    -3.861000000     3.543000000
C     1.673000000    -3.814000000     2.970000000
C     0.349000000    -3.830000000     3.423000000
H     0.267000000    -3.486000000     4.450000000
C     1.908000000    -4.249000000     1.616000000
C     0.842000000    -4.551000000     0.807000000
H     1.041000000    -4.824000000    -0.226000000
C    -0.472000000    -4.494000000     1.277000000
O    -1.406000000    -4.663000000     0.280000000
C    -2.009000000    -3.421000000    -0.045000000
C    -2.266000000    -3.199000000    -1.550000000
C    -3.508000000    -2.763000000    -2.076000000
H    -4.387000000    -2.660000000    -1.445000000
C    -1.149000000    -3.302000000    -2.364000000
H    -0.188000000    -3.555000000    -1.923000000
O    -3.340000000    -3.383000000     0.599000000
H    -1.485000000    -2.590000000     0.450000000
C    -0.731000000    -4.125000000     2.561000000
C    -2.123000000    -3.977000000     3.190000000
H    -2.021000000    -4.052000000     4.275000000
H    -2.745000000    -4.855000000     2.998000000
C    -2.834000000    -2.640000000     2.971000000
C    -2.730000000    -1.595000000     3.835000000
H    -2.127000000    -1.733000000     4.729000000
C    -3.414000000    -2.479000000     1.705000000
C    -3.980000000    -1.296000000     1.352000000
H    -4.432000000    -1.190000000     0.369000000
C    -3.932000000    -0.229000000     2.226000000
O    -4.572000000     0.894000000     1.839000000
C    -3.706000000     1.938000000     1.403000000
C    -4.350000000     2.659000000     0.239000000
C    -5.404000000     2.027000000    -0.461000000
H    -5.774000000     1.091000000    -0.049000000
C    -3.848000000     3.839000000    -0.357000000
H    -3.033000000     4.363000000     0.136000000
O    -3.390000000     2.873000000     2.455000000
H    -2.830000000     1.486000000     0.917000000
C    -3.336000000    -0.368000000     3.468000000
C    -3.254000000     0.791000000     4.445000000
H    -3.247000000     0.413000000     5.469000000
H    -4.191000000     1.348000000     4.382000000
C    -2.084000000     1.637000000     4.021000000
C    -2.182000000     2.646000000     3.046000000
C    -1.014000000     3.370000000     2.697000000
H    -1.087000000     4.135000000     1.927000000
C     0.195000000     2.985000000     3.281000000
O     1.333000000     3.558000000     2.788000000
C     2.129000000     2.723000000     1.950000000
H     1.564000000     1.830000000     1.647000000
C     2.447000000     3.539000000     0.694000000
C     3.760000000     3.527000000     0.203000000
H     4.552000000     3.044000000     0.769000000
C     1.477000000     4.324000000     0.014000000
H     0.467000000     4.334000000     0.414000000
C     1.846000000     4.986000000    -1.203000000
O     1.005000000     5.791000000    -1.896000000
C     3.122000000     4.884000000    -1.695000000
H     3.331000000     5.592000000    -2.493000000
C     4.100000000     4.192000000    -0.998000000
O     5.375000000     4.215000000    -1.564000000
C     6.202000000     3.109000000    -1.298000000
C     6.177000000     2.001000000    -2.149000000
H     5.429000000     1.910000000    -2.933000000
C     7.008000000     3.152000000    -0.122000000
H     6.913000000     3.989000000     0.565000000
C     7.678000000     1.989000000     0.268000000
H     8.228000000     1.910000000     1.202000000
C     7.600000000     0.834000000    -0.550000000
H     8.058000000    -0.073000000    -0.164000000
C     6.823000000     0.829000000    -1.737000000
O     6.752000000    -0.358000000    -2.469000000
C     5.942000000    -1.392000000    -2.157000000
C     5.790000000    -2.394000000    -3.129000000
H     6.281000000    -2.310000000    -4.095000000
C     4.760000000    -3.321000000    -3.010000000
O     4.501000000    -4.083000000    -4.176000000
C     3.203000000    -4.475000000    -4.364000000
C     2.212000000    -3.533000000    -4.452000000
H     2.454000000    -2.473000000    -4.485000000
C     2.872000000    -5.826000000    -4.557000000
H     3.596000000    -6.595000000    -4.300000000
C     1.577000000    -6.204000000    -4.670000000
H     1.375000000    -7.263000000    -4.812000000
C     0.583000000    -5.250000000    -4.632000000
H    -0.456000000    -5.544000000    -4.754000000
C     0.908000000    -3.910000000    -4.529000000
O    -0.113000000    -2.915000000    -4.501000000
C    -1.265000000    -2.988000000    -3.712000000
C    -2.558000000    -2.616000000    -4.237000000
H    -2.756000000    -2.300000000    -5.258000000
C    -3.608000000    -2.446000000    -3.373000000
O    -4.820000000    -2.123000000    -3.910000000
C    -5.875000000    -1.503000000    -3.261000000
C    -5.720000000    -0.117000000    -3.000000000
H    -4.739000000     0.305000000    -3.203000000
C    -7.029000000    -2.203000000    -2.971000000
H    -7.147000000    -3.242000000    -3.270000000
C    -8.060000000    -1.610000000    -2.265000000
H    -8.876000000    -2.235000000    -1.910000000
C    -7.970000000    -0.223000000    -2.004000000
H    -8.840000000     0.256000000    -1.563000000
C    -6.846000000     0.485000000    -2.363000000
O    -6.903000000     1.839000000    -2.296000000
C    -6.001000000     2.576000000    -1.590000000
C    -5.495000000     3.774000000    -2.135000000
H    -5.775000000     4.134000000    -3.121000000
C    -4.309000000     4.357000000    -1.558000000
O    -3.798000000     5.440000000    -2.218000000
C    -2.671000000     6.030000000    -1.663000000
C    -2.768000000     6.994000000    -0.648000000
H    -3.735000000     7.339000000    -0.292000000
C    -1.630000000     7.516000000    -0.038000000
H    -1.614000000     8.193000000     0.812000000
C    -0.363000000     7.119000000    -0.501000000
H     0.537000000     7.560000000    -0.080000000
C    -0.225000000     6.074000000    -1.415000000
C    -1.367000000     5.528000000    -1.955000000
H    -1.279000000     4.841000000    -2.793000000
C    -1.373000000     1.264000000    -1.792000000
H    -2.435000000     1.234000000    -2.023000000
C    -0.934000000     0.579000000    -0.611000000
H    -1.650000000     0.100000000     0.054000000
C     0.447000000     0.421000000    -0.354000000
H     0.715000000    -0.253000000     0.416000000
C     1.367000000     0.881000000    -1.306000000
H     2.427000000     0.697000000    -1.148000000
C     0.904000000     1.439000000    -2.539000000
H     1.600000000     1.694000000    -3.334000000
C    -0.444000000     1.705000000    -2.794000000
C    -0.823000000     2.278000000    -4.108000000
O     0.006000000     2.544000000    -4.959000000
O    -1.940000000     2.526000000    -4.357000000
O    -0.841000000     5.552000000    -9.704000000
H    -0.861000000     4.697000000    -9.275000000
H    -1.443000000     6.092000000    -9.192000000
O    -3.359000000     3.614000000    -8.750000000
H    -3.290000000     2.835000000    -9.302000000
H    -2.621000000     3.545000000    -8.145000000
O    -5.544000000     3.073000000    -6.721000000
H    -5.314000000     2.801000000    -7.609000000
H    -4.894000000     3.739000000    -6.498000000
O     1.596000000     4.367000000    -4.560000000
H     1.365000000     4.730000000    -3.705000000
H     1.013000000     3.614000000    -4.665000000
O     1.221000000    -2.269000000    -7.374000000
H     0.602000000    -2.460000000    -6.669000000
H     1.727000000    -3.076000000    -7.473000000
O    -6.097000000     5.898000000    -5.653000000
H    -5.441000000     5.389000000    -5.177000000
H    -5.825000000     5.842000000    -6.569000000
O    -3.675000000     4.456000000    -5.176000000
H    -3.208000000     3.800000000    -4.658000000
H    -3.015000000     5.122000000    -5.369000000
O     3.981000000     1.151000000    -5.011000000
H     3.501000000     0.690000000    -5.699000000
H     4.903000000     1.011000000    -5.229000000
O     2.836000000     0.153000000    -7.218000000
H     3.511000000     0.213000000    -7.894000000
H     2.364000000    -0.654000000    -7.421000000
O     0.122000000     0.945000000    -6.940000000
H    -0.089000000     1.566000000    -6.243000000
H     1.076000000     0.869000000    -6.912000000
O    -1.371000000     6.302000000    -5.182000000
H    -0.492000000     6.676000000    -5.232000000
H    -1.957000000     7.045000000    -5.323000000
O     4.505000000     3.361000000    -8.108000000
H     3.771000000     3.594000000    -8.677000000
H     4.222000000     3.627000000    -7.233000000
O     1.854000000     5.087000000    -7.579000000
H     2.025000000     4.521000000    -6.827000000
H     1.347000000     5.816000000    -7.221000000
O    -3.813000000     1.034000000    -5.496000000
H    -4.579000000     1.580000000    -5.677000000
H    -3.231000000     1.599000000    -4.988000000
O    -0.636000000     1.209000000    -9.540000000
H    -0.431000000     0.285000000    -9.683000000
H    -0.421000000     1.363000000    -8.620000000
O    -1.401000000     4.190000000    -6.819000000
H    -1.332000000     3.440000000    -6.228000000
H    -1.456000000     4.948000000    -6.238000000
O     4.340000000     3.833000000    -5.527000000
H     4.027000000     3.036000000    -5.099000000
H     3.849000000     4.539000000    -5.107000000
O    -6.506000000    -0.392000000    -6.013000000
H    -6.313000000    -1.207000000    -6.475000000
H    -5.682000000    -0.158000000    -5.585000000
O    -2.374000000    -0.788000000    -7.211000000
H    -3.059000000    -0.384000000    -6.678000000
H    -1.601000000    -0.244000000    -7.059000000
