215
-1460.70357
C    -3.483000000    -2.077000000     4.014000000
H    -3.129000000    -1.090000000     4.300000000
C    -2.533000000    -2.864000000     3.322000000
C    -2.965000000    -3.973000000     2.582000000
H    -2.230000000    -4.588000000     2.069000000
C    -1.035000000    -2.500000000     3.442000000
O    -0.689000000    -2.042000000     4.748000000
H    -0.835000000    -1.790000000     2.626000000
O    -0.168000000    -3.687000000     3.293000000
C     0.918000000    -3.579000000     2.442000000
C     0.808000000    -4.072000000     1.152000000
H    -0.166000000    -4.368000000     0.772000000
C     1.928000000    -3.977000000     0.376000000
O     1.695000000    -4.339000000    -0.936000000
C     3.196000000    -3.521000000     0.833000000
C     4.465000000    -3.541000000    -0.035000000
H     5.434000000    -3.479000000     0.465000000
C     4.335000000    -2.277000000    -0.957000000
C     4.801000000    -1.125000000    -0.377000000
H     5.445000000    -1.261000000     0.488000000
H     4.522000000    -4.468000000    -0.610000000
C     3.227000000    -3.102000000     2.172000000
H     4.169000000    -2.815000000     2.631000000
C     2.077000000    -3.138000000     3.010000000
C     2.140000000    -2.788000000     4.458000000
H     3.169000000    -2.875000000     4.814000000
H     1.554000000    -3.515000000     5.024000000
C     1.683000000    -1.344000000     4.578000000
C     2.635000000    -0.320000000     4.487000000
H     3.682000000    -0.597000000     4.588000000
C     0.298000000    -1.061000000     4.751000000
C    -0.128000000     0.267000000     4.649000000
H    -1.191000000     0.485000000     4.585000000
C     0.831000000     1.249000000     4.372000000
O     0.300000000     2.478000000     4.150000000
C     0.477000000     3.011000000     2.813000000
C    -0.917000000     3.550000000     2.334000000
C    -1.016000000     4.802000000     1.844000000
H    -0.089000000     5.369000000     1.824000000
C    -2.014000000     2.662000000     2.370000000
H    -1.918000000     1.630000000     2.697000000
O     1.539000000     3.927000000     2.767000000
H     0.638000000     2.294000000     1.995000000
C     2.201000000     0.988000000     4.331000000
C     3.267000000     2.066000000     4.230000000
H     4.165000000     1.691000000     4.725000000
H     2.873000000     2.929000000     4.772000000
C     3.392000000     2.406000000     2.745000000
C     4.368000000     1.804000000     1.913000000
H     5.002000000     1.032000000     2.340000000
C     2.584000000     3.384000000     2.145000000
C     2.695000000     3.642000000     0.784000000
H     2.048000000     4.336000000     0.253000000
C     3.578000000     2.978000000    -0.018000000
O     3.591000000     3.260000000    -1.342000000
C     2.949000000     2.308000000    -2.187000000
C     2.010000000     2.922000000    -3.229000000
C     1.448000000     4.172000000    -2.933000000
H     1.734000000     4.796000000    -2.091000000
C     1.530000000     2.196000000    -4.248000000
H     2.012000000     1.247000000    -4.467000000
O     3.983000000     1.544000000    -2.762000000
H     2.325000000     1.582000000    -1.645000000
C     4.453000000     2.067000000     0.543000000
C     5.406000000     1.295000000    -0.372000000
H     6.259000000     0.895000000     0.179000000
H     5.834000000     2.002000000    -1.087000000
C     4.814000000     0.086000000    -1.047000000
C     4.168000000     0.237000000    -2.255000000
C     3.546000000    -0.903000000    -2.819000000
H     3.001000000    -0.842000000    -3.758000000
C     3.681000000    -2.199000000    -2.200000000
O     2.823000000    -3.185000000    -2.690000000
C     1.555000000    -3.308000000    -1.974000000
H     1.247000000    -2.396000000    -1.441000000
C     0.454000000    -3.549000000    -2.939000000
C    -0.758000000    -4.045000000    -2.402000000
H    -0.863000000    -4.316000000    -1.354000000
C     0.485000000    -3.086000000    -4.259000000
H     1.398000000    -2.649000000    -4.655000000
C    -0.668000000    -3.129000000    -5.016000000
O    -0.702000000    -2.605000000    -6.345000000
C    -1.799000000    -3.656000000    -4.510000000
H    -2.680000000    -3.603000000    -5.143000000
C    -1.819000000    -4.161000000    -3.219000000
O    -3.070000000    -4.439000000    -2.746000000
C    -3.230000000    -5.303000000    -1.693000000
C    -3.750000000    -4.892000000    -0.469000000
H    -3.824000000    -3.828000000    -0.260000000
C    -2.849000000    -6.605000000    -1.775000000
H    -2.375000000    -6.953000000    -2.690000000
C    -2.960000000    -7.485000000    -0.671000000
H    -2.787000000    -8.549000000    -0.813000000
C    -3.625000000    -7.071000000     0.486000000
H    -3.825000000    -7.814000000     1.253000000
C    -4.102000000    -5.767000000     0.594000000
O    -4.702000000    -5.312000000     1.793000000
C    -4.283000000    -4.280000000     2.604000000
C    -5.246000000    -3.487000000     3.209000000
H    -6.304000000    -3.703000000     3.079000000
C    -4.845000000    -2.330000000     3.853000000
O    -5.865000000    -1.528000000     4.365000000
C    -5.810000000    -0.195000000     4.197000000
C    -5.142000000     0.328000000     3.069000000
H    -4.749000000    -0.300000000     2.273000000
C    -6.472000000     0.619000000     5.043000000
H    -6.821000000     0.161000000     5.965000000
C    -6.250000000     1.965000000     4.991000000
H    -6.689000000     2.566000000     5.783000000
C    -5.591000000     2.546000000     3.903000000
H    -5.357000000     3.607000000     3.875000000
C    -4.988000000     1.728000000     2.915000000
O    -4.353000000     2.195000000     1.798000000
C    -3.273000000     3.044000000     1.872000000
C    -3.288000000     4.334000000     1.332000000
H    -4.181000000     4.780000000     0.901000000
C    -2.176000000     5.268000000     1.313000000
O    -2.212000000     6.511000000     0.745000000
C    -1.542000000     6.938000000    -0.422000000
C    -1.188000000     6.120000000    -1.482000000
H    -1.516000000     5.086000000    -1.552000000
C    -0.877000000     8.187000000    -0.301000000
H    -0.979000000     8.891000000     0.521000000
C    -0.153000000     8.675000000    -1.444000000
H     0.251000000     9.672000000    -1.287000000
C     0.054000000     7.901000000    -2.574000000
H     0.636000000     8.224000000    -3.433000000
C    -0.475000000     6.598000000    -2.605000000
O    -0.167000000     5.839000000    -3.715000000
C     0.437000000     4.583000000    -3.760000000
C     0.060000000     3.894000000    -4.869000000
H    -0.648000000     4.390000000    -5.529000000
C     0.575000000     2.689000000    -5.122000000
O     0.156000000     2.042000000    -6.320000000
C     0.565000000     0.786000000    -6.665000000
C     1.732000000     0.621000000    -7.358000000
H     2.376000000     1.489000000    -7.476000000
C     2.089000000    -0.680000000    -7.750000000
H     3.025000000    -0.833000000    -8.279000000
C     1.306000000    -1.789000000    -7.421000000
H     1.623000000    -2.766000000    -7.777000000
C     0.128000000    -1.589000000    -6.706000000
C    -0.257000000    -0.299000000    -6.342000000
H    -1.263000000    -0.243000000    -5.935000000
C    -1.413000000     1.478000000    -0.620000000
H    -1.873000000     2.322000000    -1.127000000
C    -0.080000000     1.632000000    -0.479000000
H     0.395000000     2.493000000    -0.942000000
C     0.685000000     0.577000000     0.003000000
H     1.718000000     0.725000000     0.087000000
C     0.060000000    -0.586000000     0.425000000
H     0.609000000    -1.352000000     0.967000000
C    -1.303000000    -0.849000000     0.108000000
H    -1.768000000    -1.826000000     0.215000000
C    -2.063000000     0.240000000    -0.414000000
C    -3.535000000     0.117000000    -0.817000000
O    -4.208000000    -0.928000000    -0.610000000
O    -3.974000000     0.988000000    -1.574000000
O    -4.797000000    -1.780000000    -2.985000000
H    -4.144000000    -2.473000000    -3.089000000
H    -4.663000000    -1.456000000    -2.095000000
O    -6.644000000     0.605000000    -1.333000000
H    -5.693000000     0.535000000    -1.417000000
H    -6.824000000     1.542000000    -1.419000000
O    -6.447000000     2.078000000    -4.282000000
H    -5.573000000     2.034000000    -3.895000000
H    -6.495000000     2.954000000    -4.665000000
O    -5.344000000     6.030000000    -2.862000000
H    -5.534000000     5.448000000    -2.126000000
H    -4.439000000     5.828000000    -3.099000000
O    -3.426000000     1.015000000    -4.200000000
H    -3.763000000     1.109000000    -3.309000000
H    -2.707000000     0.389000000    -4.118000000
O    -9.151000000     1.185000000    -3.759000000
H    -8.974000000     0.455000000    -3.166000000
H    -8.291000000     1.430000000    -4.100000000
O    -5.146000000     3.389000000    -1.097000000
H    -6.086000000     3.237000000    -1.191000000
H    -4.789000000     2.535000000    -0.850000000
O    -6.580000000    -2.891000000    -4.465000000
H    -6.062000000    -2.340000000    -3.878000000
H    -6.127000000    -3.734000000    -4.463000000
O    -7.716000000     3.006000000    -1.437000000
H    -8.309000000     2.546000000    -2.030000000
H    -8.194000000     3.795000000    -1.184000000
O    -6.457000000    -2.454000000    -0.007000000
H    -6.925000000    -1.619000000     0.014000000
H    -5.535000000    -2.209000000    -0.094000000
O    -8.600000000     1.162000000     0.834000000
H    -8.260000000     1.827000000     1.432000000
H    -7.881000000     0.998000000     0.224000000
O    -9.030000000    -1.136000000     2.700000000
H    -9.150000000    -1.488000000     1.818000000
H    -8.667000000    -0.261000000     2.561000000
O    -8.125000000    -1.602000000    -2.579000000
H    -7.679000000    -2.117000000    -3.251000000
H    -7.503000000    -0.909000000    -2.355000000
O    -5.029000000     4.299000000    -5.445000000
H    -4.503000000     4.331000000    -4.645000000
H    -4.750000000     5.066000000    -5.945000000
O    -3.301000000     3.641000000    -3.046000000
H    -3.813000000     3.505000000    -2.249000000
H    -3.194000000     2.763000000    -3.414000000
O    -7.542000000    -5.062000000     0.278000000
H    -7.198000000    -4.169000000     0.287000000
H    -7.175000000    -5.468000000     1.063000000
O    -3.712000000     2.070000000    -6.874000000
H    -3.641000000     1.243000000    -6.398000000
H    -4.243000000     2.629000000    -6.306000000
O    -9.665000000    -2.080000000    -0.080000000
H   -10.580000000    -2.297000000    -0.256000000
H    -9.414000000    -1.500000000    -0.799000000
O    -3.631000000    -0.746000000    -6.912000000
H    -4.480000000    -0.724000000    -6.472000000
H    -3.539000000    -1.651000000    -7.210000000
