215
-1468.74666
C    -3.429000000    -1.610000000     4.044000000
H    -2.915000000    -0.814000000     4.577000000
C    -2.553000000    -2.619000000     3.653000000
C    -3.110000000    -3.704000000     2.921000000
H    -2.458000000    -4.472000000     2.511000000
C    -1.038000000    -2.533000000     3.669000000
O    -0.526000000    -1.760000000     4.774000000
H    -0.855000000    -1.899000000     2.788000000
O    -0.371000000    -3.831000000     3.495000000
C     0.770000000    -3.886000000     2.641000000
C     0.543000000    -4.295000000     1.341000000
H    -0.489000000    -4.524000000     1.087000000
C     1.560000000    -4.162000000     0.408000000
O     1.188000000    -4.351000000    -0.941000000
C     2.853000000    -3.699000000     0.758000000
C     3.921000000    -3.587000000    -0.240000000
H     4.835000000    -3.559000000     0.356000000
C     3.977000000    -2.316000000    -1.035000000
C     4.826000000    -1.322000000    -0.598000000
H     5.428000000    -1.533000000     0.282000000
H     4.086000000    -4.472000000    -0.858000000
C     3.008000000    -3.243000000     2.085000000
H     3.954000000    -2.830000000     2.427000000
C     1.956000000    -3.322000000     2.965000000
C     2.197000000    -2.610000000     4.250000000
H     3.252000000    -2.663000000     4.524000000
H     1.632000000    -3.136000000     5.022000000
C     1.805000000    -1.153000000     4.280000000
C     2.716000000    -0.125000000     4.087000000
H     3.748000000    -0.426000000     3.926000000
C     0.444000000    -0.769000000     4.460000000
C     0.079000000     0.547000000     4.523000000
H    -0.953000000     0.869000000     4.635000000
C     1.041000000     1.547000000     4.308000000
O     0.574000000     2.779000000     4.006000000
C     0.338000000     3.140000000     2.615000000
C    -0.939000000     3.854000000     2.417000000
C    -1.107000000     4.673000000     1.276000000
H    -0.270000000     4.689000000     0.582000000
C    -2.067000000     3.648000000     3.252000000
H    -1.869000000     3.063000000     4.147000000
O     1.435000000     4.000000000     2.221000000
H     0.331000000     2.237000000     1.987000000
C     2.353000000     1.230000000     4.051000000
C     3.369000000     2.258000000     3.732000000
H     4.344000000     1.967000000     4.130000000
H     2.998000000     3.184000000     4.174000000
C     3.390000000     2.428000000     2.188000000
C     4.240000000     1.671000000     1.467000000
H     4.915000000     0.998000000     1.990000000
C     2.521000000     3.316000000     1.584000000
C     2.636000000     3.624000000     0.229000000
H     2.029000000     4.429000000    -0.178000000
C     3.623000000     2.944000000    -0.478000000
O     3.630000000     3.110000000    -1.831000000
C     3.073000000     2.010000000    -2.579000000
C     2.174000000     2.537000000    -3.727000000
C     1.508000000     3.746000000    -3.546000000
H     1.599000000     4.299000000    -2.615000000
C     2.081000000     1.817000000    -4.913000000
H     2.592000000     0.869000000    -5.060000000
O     4.099000000     1.178000000    -3.122000000
H     2.467000000     1.305000000    -1.992000000
C     4.405000000     1.936000000     0.117000000
C     5.488000000     1.165000000    -0.627000000
H     6.260000000     0.870000000     0.088000000
H     6.019000000     1.833000000    -1.308000000
C     4.889000000    -0.060000000    -1.230000000
C     4.264000000     0.010000000    -2.473000000
C     3.504000000    -0.991000000    -2.948000000
H     3.039000000    -0.898000000    -3.926000000
C     3.186000000    -2.085000000    -2.166000000
O     2.232000000    -3.012000000    -2.592000000
C     1.104000000    -3.162000000    -1.750000000
H     1.039000000    -2.312000000    -1.056000000
C    -0.129000000    -3.291000000    -2.645000000
C    -1.282000000    -3.937000000    -2.171000000
H    -1.279000000    -4.310000000    -1.150000000
C    -0.137000000    -2.864000000    -3.938000000
H     0.795000000    -2.449000000    -4.314000000
C    -1.292000000    -2.863000000    -4.713000000
O    -1.381000000    -2.230000000    -6.005000000
C    -2.463000000    -3.510000000    -4.243000000
H    -3.390000000    -3.396000000    -4.799000000
C    -2.416000000    -4.101000000    -2.964000000
O    -3.542000000    -4.742000000    -2.500000000
C    -3.537000000    -5.420000000    -1.320000000
C    -4.292000000    -4.771000000    -0.313000000
H    -4.750000000    -3.825000000    -0.592000000
C    -2.818000000    -6.582000000    -1.141000000
H    -2.232000000    -6.923000000    -1.991000000
C    -2.857000000    -7.190000000     0.126000000
H    -2.403000000    -8.137000000     0.407000000
C    -3.685000000    -6.602000000     1.170000000
H    -3.821000000    -7.054000000     2.149000000
C    -4.357000000    -5.421000000     0.865000000
O    -5.046000000    -4.796000000     1.920000000
C    -4.509000000    -3.764000000     2.656000000
C    -5.351000000    -2.745000000     3.144000000
H    -6.425000000    -2.856000000     3.014000000
C    -4.824000000    -1.675000000     3.912000000
O    -5.644000000    -0.587000000     4.334000000
C    -5.126000000     0.556000000     4.902000000
C    -4.864000000     1.650000000     4.060000000
H    -5.042000000     1.550000000     2.992000000
C    -4.855000000     0.668000000     6.265000000
H    -5.005000000    -0.196000000     6.907000000
C    -4.461000000     1.890000000     6.732000000
H    -4.393000000     1.920000000     7.816000000
C    -4.273000000     2.982000000     5.937000000
H    -3.832000000     3.905000000     6.305000000
C    -4.520000000     2.896000000     4.608000000
O    -4.365000000     4.012000000     3.804000000
C    -3.323000000     4.193000000     2.989000000
C    -3.449000000     4.970000000     1.815000000
H    -4.388000000     5.436000000     1.528000000
C    -2.347000000     5.222000000     1.023000000
O    -2.609000000     5.744000000    -0.250000000
C    -1.566000000     6.212000000    -1.089000000
C    -1.313000000     5.575000000    -2.268000000
H    -1.985000000     4.750000000    -2.489000000
C    -0.641000000     7.181000000    -0.671000000
H    -0.701000000     7.574000000     0.341000000
C     0.493000000     7.481000000    -1.492000000
H     1.196000000     8.050000000    -0.889000000
C     0.574000000     6.960000000    -2.774000000
H     1.330000000     7.149000000    -3.531000000
C    -0.290000000     5.928000000    -3.173000000
O    -0.183000000     5.319000000    -4.427000000
C     0.605000000     4.186000000    -4.536000000
C     0.482000000     3.427000000    -5.710000000
H    -0.247000000     3.645000000    -6.485000000
C     1.265000000     2.315000000    -5.934000000
O     1.154000000     1.658000000    -7.145000000
C     0.953000000     0.314000000    -7.296000000
C     1.606000000    -0.334000000    -8.254000000
H     2.328000000     0.247000000    -8.822000000
C     1.266000000    -1.647000000    -8.582000000
H     1.695000000    -2.242000000    -9.384000000
C     0.321000000    -2.289000000    -7.783000000
H     0.036000000    -3.316000000    -7.998000000
C    -0.357000000    -1.631000000    -6.708000000
C    -0.127000000    -0.251000000    -6.626000000
H    -0.621000000     0.314000000    -5.840000000
C    -1.125000000     0.916000000    -1.568000000
H    -0.969000000     1.759000000    -2.236000000
C    -0.398000000     0.754000000    -0.400000000
H     0.386000000     1.443000000    -0.097000000
C    -0.694000000    -0.255000000     0.522000000
H    -0.173000000    -0.229000000     1.481000000
C    -1.672000000    -1.186000000     0.169000000
H    -1.942000000    -1.973000000     0.868000000
C    -2.388000000    -1.106000000    -1.001000000
H    -3.177000000    -1.847000000    -1.104000000
C    -2.167000000    -0.012000000    -1.920000000
C    -3.065000000     0.172000000    -3.116000000
O    -4.089000000    -0.460000000    -3.303000000
O    -2.894000000     1.171000000    -3.796000000
O    -5.580000000     1.782000000    -3.105000000
H    -5.113000000     0.991000000    -3.376000000
H    -5.106000000     2.086000000    -2.331000000
O    -5.674000000    -5.722000000    -4.403000000
H    -6.421000000    -6.294000000    -4.225000000
H    -5.612000000    -5.161000000    -3.630000000
O    -2.217000000     1.571000000    -8.761000000
H    -2.406000000     1.207000000    -7.896000000
H    -2.203000000     0.811000000    -9.343000000
O    -2.558000000    -3.003000000    -8.831000000
H    -2.346000000    -3.733000000    -8.250000000
H    -3.436000000    -2.731000000    -8.565000000
O    -3.206000000     0.138000000    -6.325000000
H    -3.034000000     0.643000000    -5.530000000
H    -2.845000000    -0.729000000    -6.140000000
O    -8.132000000    -1.944000000    -3.301000000
H    -8.752000000    -1.821000000    -2.583000000
H    -7.271000000    -1.859000000    -2.892000000
O    -5.561000000     5.424000000    -2.466000000
H    -5.220000000     4.615000000    -2.083000000
H    -4.875000000     5.711000000    -3.069000000
O     1.094000000    -5.087000000    -5.306000000
H     0.400000000    -5.729000000    -5.456000000
H     0.641000000    -4.244000000    -5.295000000
O    -3.339000000     3.499000000    -5.082000000
H    -2.992000000     3.075000000    -5.867000000
H    -3.261000000     2.834000000    -4.398000000
O    -3.697000000     6.047000000    -4.427000000
H    -3.424000000     5.158000000    -4.654000000
H    -4.191000000     6.348000000    -5.190000000
O    -5.688000000    -0.691000000     0.618000000
H    -4.920000000    -0.328000000     1.061000000
H    -6.431000000    -0.378000000     1.133000000
O    -4.150000000     3.282000000    -1.265000000
H    -3.291000000     2.861000000    -1.229000000
H    -4.525000000     3.137000000    -0.396000000
O    -7.131000000    -4.414000000    -2.099000000
H    -7.676000000    -3.753000000    -2.526000000
H    -6.345000000    -3.939000000    -1.829000000
O    -5.988000000     2.876000000    -5.808000000
H    -5.277000000     3.489000000    -5.623000000
H    -5.993000000     2.281000000    -5.058000000
O    -7.862000000     3.295000000    -2.867000000
H    -7.042000000     2.806000000    -2.942000000
H    -7.726000000     4.074000000    -3.405000000
O    -5.910000000    -1.741000000    -1.883000000
H    -5.928000000    -1.548000000    -0.946000000
H    -5.256000000    -1.139000000    -2.240000000
O    -5.511000000    -2.089000000    -4.689000000
H    -6.347000000    -1.746000000    -4.373000000
H    -4.858000000    -1.472000000    -4.357000000
O    -4.770000000    -1.659000000    -7.516000000
H    -4.394000000    -0.880000000    -7.107000000
H    -5.063000000    -2.199000000    -6.782000000
O    -5.852000000     2.975000000     0.987000000
H    -5.674000000     3.631000000     1.661000000
H    -6.788000000     3.067000000     0.806000000
