215
-1441.02406
C     3.117000000    -3.008000000    -1.613000000
H     2.273000000    -3.638000000    -1.346000000
C     3.947000000    -2.367000000    -0.624000000
C     5.100000000    -1.654000000    -1.001000000
H     5.787000000    -1.212000000    -0.284000000
C     3.451000000    -2.354000000     0.833000000
O     2.814000000    -3.614000000     1.183000000
H     2.658000000    -1.600000000     0.939000000
O     4.352000000    -2.117000000     1.827000000
C     3.946000000    -1.145000000     2.772000000
C     4.165000000     0.254000000     2.501000000
H     4.861000000     0.472000000     1.695000000
C     3.566000000     1.244000000     3.267000000
O     3.555000000     2.483000000     2.798000000
C     2.669000000     0.889000000     4.290000000
C     1.763000000     1.928000000     4.992000000
H     1.340000000     1.466000000     5.887000000
C     0.467000000     2.305000000     4.236000000
C    -0.717000000     1.683000000     4.641000000
H    -0.686000000     1.002000000     5.487000000
H     2.330000000     2.842000000     5.182000000
C     2.385000000    -0.438000000     4.605000000
H     1.543000000    -0.595000000     5.274000000
C     2.990000000    -1.416000000     3.774000000
C     2.590000000    -2.822000000     4.029000000
H     2.329000000    -3.066000000     5.061000000
H     3.396000000    -3.528000000     3.816000000
C     1.430000000    -3.297000000     3.164000000
C     0.146000000    -3.265000000     3.717000000
H    -0.077000000    -2.873000000     4.706000000
C     1.608000000    -3.776000000     1.890000000
C     0.550000000    -4.222000000     1.098000000
H     0.673000000    -4.606000000     0.088000000
C    -0.736000000    -4.113000000     1.675000000
O    -1.852000000    -4.565000000     1.017000000
C    -2.659000000    -3.635000000     0.249000000
C    -2.932000000    -3.955000000    -1.222000000
C    -4.105000000    -3.464000000    -1.825000000
H    -4.755000000    -2.772000000    -1.296000000
C    -2.066000000    -4.758000000    -1.969000000
H    -1.194000000    -5.167000000    -1.464000000
O    -3.812000000    -3.325000000     0.988000000
H    -2.086000000    -2.699000000     0.174000000
C    -0.918000000    -3.610000000     2.949000000
C    -2.351000000    -3.603000000     3.555000000
H    -2.327000000    -3.446000000     4.635000000
H    -2.821000000    -4.567000000     3.350000000
C    -3.015000000    -2.361000000     3.054000000
C    -2.883000000    -1.227000000     3.869000000
H    -2.208000000    -1.340000000     4.714000000
C    -3.775000000    -2.237000000     1.842000000
C    -4.376000000    -1.043000000     1.516000000
H    -5.013000000    -0.956000000     0.640000000
C    -4.106000000     0.114000000     2.267000000
O    -4.500000000     1.304000000     1.790000000
C    -3.519000000     2.240000000     1.345000000
C    -3.888000000     2.845000000    -0.020000000
C    -4.552000000     2.048000000    -0.991000000
H    -4.875000000     1.030000000    -0.786000000
C    -3.513000000     4.149000000    -0.371000000
H    -2.877000000     4.752000000     0.271000000
O    -3.174000000     3.170000000     2.380000000
H    -2.607000000     1.679000000     1.094000000
C    -3.401000000    -0.005000000     3.464000000
C    -3.144000000     1.271000000     4.338000000
H    -3.210000000     0.871000000     5.352000000
H    -3.943000000     2.012000000     4.269000000
C    -1.891000000     1.983000000     4.039000000
C    -1.922000000     2.921000000     3.034000000
C    -0.747000000     3.518000000     2.554000000
H    -0.624000000     4.157000000     1.682000000
C     0.465000000     3.231000000     3.216000000
O     1.646000000     3.787000000     2.752000000
C     2.441000000     2.922000000     1.978000000
H     1.838000000     2.026000000     1.770000000
C     2.864000000     3.538000000     0.630000000
C     4.164000000     3.377000000     0.093000000
H     4.948000000     2.991000000     0.740000000
C     1.951000000     4.287000000    -0.117000000
H     0.970000000     4.553000000     0.268000000
C     2.298000000     4.804000000    -1.352000000
O     1.454000000     5.553000000    -2.140000000
C     3.558000000     4.604000000    -1.893000000
H     3.829000000     5.035000000    -2.853000000
C     4.528000000     3.957000000    -1.117000000
O     5.838000000     3.886000000    -1.604000000
C     6.571000000     2.735000000    -1.609000000
C     6.071000000     1.579000000    -2.171000000
H     5.089000000     1.603000000    -2.637000000
C     7.834000000     2.736000000    -1.104000000
H     8.204000000     3.571000000    -0.514000000
C     8.561000000     1.625000000    -0.956000000
H     9.455000000     1.690000000    -0.341000000
C     8.038000000     0.413000000    -1.562000000
H     8.641000000    -0.490000000    -1.509000000
C     6.846000000     0.428000000    -2.226000000
O     6.391000000    -0.752000000    -2.841000000
C     5.294000000    -1.452000000    -2.412000000
C     4.458000000    -2.061000000    -3.368000000
H     4.628000000    -1.944000000    -4.435000000
C     3.397000000    -2.884000000    -2.992000000
O     2.586000000    -3.340000000    -3.943000000
C     1.845000000    -4.503000000    -3.769000000
C     0.487000000    -4.496000000    -4.054000000
H    -0.019000000    -3.567000000    -4.304000000
C     2.459000000    -5.705000000    -3.525000000
H     3.532000000    -5.704000000    -3.350000000
C     1.815000000    -6.967000000    -3.574000000
H     2.396000000    -7.882000000    -3.490000000
C     0.448000000    -6.970000000    -3.790000000
H    -0.107000000    -7.904000000    -3.807000000
C    -0.219000000    -5.743000000    -3.954000000
O    -1.566000000    -5.774000000    -4.181000000
C    -2.339000000    -4.965000000    -3.371000000
C    -3.500000000    -4.443000000    -3.923000000
H    -3.741000000    -4.617000000    -4.969000000
C    -4.384000000    -3.669000000    -3.184000000
O    -5.539000000    -3.167000000    -3.691000000
C    -6.121000000    -1.927000000    -3.414000000
C    -5.428000000    -0.689000000    -3.444000000
H    -4.424000000    -0.575000000    -3.844000000
C    -7.421000000    -1.904000000    -2.904000000
H    -7.968000000    -2.833000000    -2.763000000
C    -7.948000000    -0.698000000    -2.382000000
H    -8.923000000    -0.797000000    -1.913000000
C    -7.280000000     0.510000000    -2.479000000
H    -7.732000000     1.400000000    -2.050000000
C    -6.035000000     0.515000000    -3.017000000
O    -5.400000000     1.705000000    -3.246000000
C    -4.852000000     2.499000000    -2.257000000
C    -4.493000000     3.819000000    -2.543000000
H    -4.815000000     4.201000000    -3.508000000
C    -3.724000000     4.615000000    -1.654000000
O    -3.388000000     5.901000000    -2.028000000
C    -2.115000000     6.378000000    -1.652000000
C    -1.997000000     7.610000000    -0.935000000
H    -2.886000000     8.193000000    -0.706000000
C    -0.735000000     8.095000000    -0.631000000
H    -0.575000000     9.038000000    -0.116000000
C     0.405000000     7.362000000    -1.043000000
H     1.383000000     7.773000000    -0.803000000
C     0.270000000     6.164000000    -1.700000000
C    -0.977000000     5.700000000    -2.089000000
H    -1.129000000     4.808000000    -2.692000000
C    -1.139000000     0.161000000    -2.622000000
H    -1.975000000     0.086000000    -3.313000000
C    -1.333000000    -0.062000000    -1.284000000
H    -2.390000000    -0.188000000    -1.061000000
C    -0.231000000    -0.236000000    -0.422000000
H    -0.355000000    -0.396000000     0.651000000
C     1.026000000    -0.074000000    -0.946000000
H     1.842000000    -0.124000000    -0.230000000
C     1.210000000     0.120000000    -2.295000000
H     2.211000000     0.020000000    -2.707000000
C     0.140000000     0.090000000    -3.164000000
C     0.341000000     0.201000000    -4.680000000
O     1.420000000     0.453000000    -5.184000000
O    -0.549000000    -0.165000000    -5.342000000
O     2.530000000     5.311000000    -6.149000000
H     1.644000000     5.596000000    -5.926000000
H     2.673000000     4.532000000    -5.610000000
O    -0.608000000     1.981000000    -9.827000000
H    -1.425000000     2.061000000   -10.320000000
H     0.076000000     1.974000000   -10.496000000
O    -4.974000000     2.275000000    -6.780000000
H    -4.177000000     1.783000000    -6.584000000
H    -4.999000000     2.319000000    -7.736000000
O    -3.360000000    -0.674000000    -8.811000000
H    -3.853000000    -1.178000000    -8.164000000
H    -2.539000000    -0.456000000    -8.370000000
O     2.475000000     2.862000000    -4.401000000
H     2.403000000     2.765000000    -3.452000000
H     2.068000000     2.071000000    -4.754000000
O     0.567000000    -5.093000000    -7.354000000
H     0.744000000    -4.213000000    -7.021000000
H     1.418000000    -5.412000000    -7.653000000
O    -3.509000000     5.559000000    -5.430000000
H    -2.558000000     5.558000000    -5.320000000
H    -3.710000000     6.431000000    -5.772000000
O    -2.452000000     1.372000000    -6.266000000
H    -2.025000000     2.217000000    -6.125000000
H    -1.887000000     0.740000000    -5.821000000
O     3.259000000     0.407000000    -7.076000000
H     3.494000000    -0.488000000    -7.321000000
H     2.520000000     0.304000000    -6.476000000
O     3.622000000    -2.131000000    -8.130000000
H     3.973000000    -1.898000000    -8.990000000
H     4.039000000    -2.966000000    -7.919000000
O     1.228000000    -2.426000000    -6.521000000
H     1.061000000    -1.703000000    -5.917000000
H     2.071000000    -2.214000000    -6.922000000
O    -0.413000000     4.949000000    -6.296000000
H    -0.001000000     4.085000000    -6.296000000
H    -0.777000000     5.040000000    -7.176000000
O     5.620000000    -0.063000000    -8.345000000
H     6.030000000     0.780000000    -8.535000000
H     4.863000000     0.156000000    -7.801000000
O     2.859000000     2.968000000    -8.186000000
H     1.964000000     3.281000000    -8.058000000
H     2.886000000     2.126000000    -7.733000000
O    -1.894000000    -2.328000000    -6.680000000
H    -1.434000000    -3.103000000    -6.358000000
H    -1.326000000    -1.596000000    -6.439000000
O    -1.241000000    -3.726000000    -8.929000000
H    -1.211000000    -3.123000000    -8.186000000
H    -0.580000000    -4.389000000    -8.727000000
O     0.248000000     2.554000000    -7.117000000
H    -0.201000000     2.345000000    -7.936000000
H     0.454000000     1.701000000    -6.733000000
O     5.025000000     2.531000000    -5.440000000
H     4.912000000     1.650000000    -5.799000000
H     4.141000000     2.807000000    -5.201000000
O    -4.723000000    -2.078000000    -6.843000000
H    -5.108000000    -2.834000000    -6.399000000
H    -3.796000000    -2.110000000    -6.607000000
