215
-1436.42211
C    -3.249000000    -1.856000000     4.022000000
H    -2.788000000    -1.660000000     4.987000000
C    -2.501000000    -2.582000000     3.051000000
C    -3.040000000    -2.928000000     1.839000000
H    -2.464000000    -3.539000000     1.148000000
C    -0.965000000    -2.859000000     3.107000000
O    -0.355000000    -2.577000000     4.296000000
H    -0.521000000    -2.160000000     2.383000000
O    -0.597000000    -4.102000000     2.534000000
C     0.511000000    -4.220000000     1.748000000
C     0.313000000    -4.527000000     0.369000000
H    -0.673000000    -4.819000000     0.016000000
C     1.320000000    -4.505000000    -0.557000000
O     1.060000000    -4.611000000    -1.867000000
C     2.629000000    -4.192000000    -0.154000000
C     3.768000000    -3.893000000    -1.135000000
H     4.755000000    -4.187000000    -0.774000000
C     3.763000000    -2.509000000    -1.752000000
C     4.608000000    -1.569000000    -1.164000000
H     5.271000000    -1.808000000    -0.337000000
H     3.766000000    -4.756000000    -1.804000000
C     2.840000000    -3.967000000     1.227000000
H     3.855000000    -3.749000000     1.550000000
C     1.835000000    -3.958000000     2.165000000
C     2.270000000    -3.677000000     3.606000000
H     3.298000000    -3.994000000     3.790000000
H     1.759000000    -4.378000000     4.270000000
C     2.018000000    -2.176000000     3.929000000
C     3.010000000    -1.199000000     3.721000000
H     3.950000000    -1.594000000     3.344000000
C     0.718000000    -1.716000000     4.255000000
C     0.439000000    -0.368000000     4.432000000
H    -0.457000000     0.050000000     4.884000000
C     1.451000000     0.551000000     4.343000000
O     1.092000000     1.838000000     4.432000000
C     0.934000000     2.528000000     3.166000000
C    -0.334000000     3.387000000     3.280000000
C    -0.509000000     4.471000000     2.478000000
H     0.348000000     4.659000000     1.836000000
C    -1.399000000     3.066000000     4.098000000
H    -1.323000000     2.150000000     4.679000000
O     2.069000000     3.277000000     2.723000000
H     0.581000000     1.840000000     2.385000000
C     2.758000000     0.169000000     3.913000000
C     3.821000000     1.222000000     3.733000000
H     4.839000000     0.872000000     3.916000000
H     3.633000000     2.083000000     4.379000000
C     3.799000000     1.654000000     2.282000000
C     4.598000000     1.009000000     1.352000000
H     5.162000000     0.131000000     1.658000000
C     2.956000000     2.670000000     1.881000000
C     3.025000000     3.094000000     0.553000000
H     2.322000000     3.854000000     0.223000000
C     3.883000000     2.523000000    -0.373000000
O     3.760000000     2.895000000    -1.657000000
C     2.927000000     2.145000000    -2.504000000
C     1.981000000     3.057000000    -3.281000000
C     1.609000000     4.289000000    -2.770000000
H     2.235000000     4.846000000    -2.078000000
C     1.103000000     2.413000000    -4.178000000
H     1.283000000     1.364000000    -4.398000000
O     3.801000000     1.343000000    -3.395000000
H     2.379000000     1.399000000    -1.908000000
C     4.696000000     1.427000000     0.018000000
C     5.547000000     0.786000000    -1.054000000
H     6.437000000     0.309000000    -0.638000000
H     5.851000000     1.521000000    -1.802000000
C     4.642000000    -0.274000000    -1.777000000
C     3.898000000     0.022000000    -2.943000000
C     3.073000000    -0.977000000    -3.491000000
H     2.457000000    -0.782000000    -4.365000000
C     2.987000000    -2.214000000    -2.865000000
O     2.145000000    -3.161000000    -3.395000000
C     0.846000000    -3.462000000    -2.749000000
H     0.538000000    -2.618000000    -2.114000000
C    -0.261000000    -3.663000000    -3.771000000
C    -1.445000000    -4.305000000    -3.388000000
H    -1.486000000    -4.948000000    -2.512000000
C    -0.357000000    -2.880000000    -4.898000000
H     0.498000000    -2.250000000    -5.131000000
C    -1.412000000    -2.804000000    -5.738000000
O    -1.323000000    -2.180000000    -6.989000000
C    -2.566000000    -3.529000000    -5.318000000
H    -3.494000000    -3.468000000    -5.882000000
C    -2.560000000    -4.272000000    -4.149000000
O    -3.667000000    -5.001000000    -3.772000000
C    -4.123000000    -5.041000000    -2.472000000
C    -4.270000000    -3.948000000    -1.651000000
H    -3.961000000    -3.002000000    -2.091000000
C    -4.551000000    -6.285000000    -1.896000000
H    -4.610000000    -7.188000000    -2.499000000
C    -5.041000000    -6.370000000    -0.617000000
H    -5.363000000    -7.331000000    -0.225000000
C    -5.199000000    -5.189000000     0.138000000
H    -5.625000000    -5.145000000     1.137000000
C    -4.772000000    -3.973000000    -0.348000000
O    -4.867000000    -2.778000000     0.314000000
C    -4.326000000    -2.708000000     1.562000000
C    -5.162000000    -2.046000000     2.567000000
H    -6.228000000    -1.926000000     2.391000000
C    -4.598000000    -1.611000000     3.800000000
O    -5.293000000    -1.117000000     4.826000000
C    -4.787000000     0.000000000     5.424000000
C    -4.576000000     1.209000000     4.735000000
H    -4.738000000     1.230000000     3.661000000
C    -4.445000000    -0.168000000     6.737000000
H    -4.587000000    -1.131000000     7.220000000
C    -3.890000000     0.924000000     7.400000000
H    -3.541000000     0.808000000     8.423000000
C    -3.563000000     2.103000000     6.776000000
H    -3.201000000     2.961000000     7.336000000
C    -3.998000000     2.289000000     5.430000000
O    -3.796000000     3.476000000     4.715000000
C    -2.628000000     3.806000000     4.023000000
C    -2.696000000     4.968000000     3.253000000
H    -3.591000000     5.585000000     3.268000000
C    -1.606000000     5.280000000     2.436000000
O    -1.659000000     6.390000000     1.587000000
C    -0.696000000     6.818000000     0.688000000
C    -0.592000000     6.255000000    -0.608000000
H    -1.331000000     5.475000000    -0.772000000
C     0.037000000     7.992000000     0.955000000
H     0.059000000     8.554000000     1.885000000
C     1.053000000     8.310000000    -0.002000000
H     1.641000000     9.217000000     0.112000000
C     1.200000000     7.709000000    -1.239000000
H     1.879000000     8.232000000    -1.907000000
C     0.404000000     6.673000000    -1.583000000
O     0.225000000     6.231000000    -2.857000000
C     0.529000000     4.964000000    -3.317000000
C    -0.198000000     4.411000000    -4.392000000
H    -0.889000000     4.989000000    -5.000000000
C     0.063000000     3.106000000    -4.792000000
O    -0.832000000     2.422000000    -5.668000000
C    -0.432000000     1.334000000    -6.399000000
C     0.742000000     1.540000000    -7.161000000
H     1.265000000     2.484000000    -7.032000000
C     1.216000000     0.430000000    -7.847000000
H     2.150000000     0.584000000    -8.381000000
C     0.563000000    -0.793000000    -7.776000000
H     0.983000000    -1.644000000    -8.306000000
C    -0.635000000    -0.963000000    -7.072000000
C    -1.119000000     0.133000000    -6.343000000
H    -2.028000000     0.034000000    -5.755000000
C    -1.508000000     1.401000000    -1.193000000
H    -1.866000000     2.399000000    -1.434000000
C    -0.256000000     1.180000000    -0.693000000
H     0.213000000     2.129000000    -0.442000000
C     0.208000000    -0.097000000    -0.429000000
H     1.187000000    -0.246000000     0.033000000
C    -0.691000000    -1.132000000    -0.516000000
H    -0.456000000    -2.160000000    -0.252000000
C    -1.901000000    -0.886000000    -1.114000000
H    -2.616000000    -1.684000000    -1.294000000
C    -2.332000000     0.340000000    -1.497000000
C    -3.687000000     0.508000000    -2.123000000
O    -4.410000000    -0.473000000    -2.336000000
O    -4.116000000     1.645000000    -2.458000000
O    -6.915000000     0.291000000    -3.475000000
H    -6.123000000     0.032000000    -3.005000000
H    -7.592000000     0.331000000    -2.800000000
O    -4.580000000    -1.767000000    -7.525000000
H    -4.512000000    -1.759000000    -6.570000000
H    -4.202000000    -0.931000000    -7.798000000
O    -9.375000000     0.483000000    -2.000000000
H   -10.102000000     0.496000000    -1.377000000
H    -9.500000000     1.270000000    -2.530000000
O    -8.993000000    -1.305000000     1.215000000
H    -9.544000000    -1.926000000     0.739000000
H    -8.421000000    -0.930000000     0.545000000
O    -6.905000000     3.867000000    -3.601000000
H    -6.334000000     4.396000000    -3.043000000
H    -6.510000000     2.995000000    -3.590000000
O    -3.121000000     3.717000000    -7.323000000
H    -3.526000000     3.634000000    -6.460000000
H    -3.705000000     4.301000000    -7.807000000
O    -5.617000000     5.095000000    -1.690000000
H    -5.770000000     4.438000000    -1.011000000
H    -5.653000000     5.931000000    -1.226000000
O    -3.683000000     2.532000000    -4.987000000
H    -2.748000000     2.333000000    -4.937000000
H    -4.033000000     2.256000000    -4.140000000
O    -6.086000000    -3.583000000    -5.075000000
H    -5.429000000    -3.066000000    -4.609000000
H    -6.609000000    -3.986000000    -4.382000000
O    -3.574000000     0.780000000    -7.953000000
H    -3.488000000     1.645000000    -7.551000000
H    -2.843000000     0.730000000    -8.570000000
O    -6.135000000     2.382000000    -0.947000000
H    -6.403000000     1.651000000    -0.389000000
H    -5.472000000     2.009000000    -1.528000000
O    -9.299000000     3.078000000    -2.671000000
H    -8.483000000     3.183000000    -3.160000000
H    -9.527000000     3.966000000    -2.394000000
O    -3.448000000     5.688000000    -3.328000000
H    -4.323000000     5.768000000    -2.949000000
H    -2.979000000     5.109000000    -2.727000000
O    -4.445000000    -1.153000000    -4.760000000
H    -4.338000000    -1.033000000    -3.816000000
H    -4.936000000    -0.382000000    -5.045000000
O    -7.686000000     3.813000000     0.852000000
H    -7.254000000     3.395000000     0.106000000
H    -7.193000000     3.508000000     1.615000000
O    -6.190000000     1.390000000    -7.505000000
H    -5.299000000     1.040000000    -7.492000000
H    -6.081000000     2.328000000    -7.348000000
O    -6.125000000    -0.422000000    -0.218000000
H    -5.873000000    -1.281000000     0.121000000
H    -5.687000000    -0.361000000    -1.067000000
O    -8.202000000    -0.884000000    -5.777000000
H    -8.643000000    -0.296000000    -6.391000000
H    -7.846000000    -0.304000000    -5.104000000
O    -9.383000000    -1.953000000    -3.329000000
H    -8.948000000    -1.745000000    -4.156000000
H    -9.366000000    -1.133000000    -2.836000000
