215
-1416.15537
C    -3.077000000    -1.328000000     3.474000000
H    -2.574000000    -0.466000000     3.905000000
C    -2.401000000    -2.542000000     3.141000000
C    -3.143000000    -3.576000000     2.566000000
H    -2.600000000    -4.488000000     2.328000000
C    -0.835000000    -2.516000000     3.297000000
O    -0.412000000    -1.710000000     4.425000000
H    -0.524000000    -2.117000000     2.320000000
O    -0.294000000    -3.926000000     3.342000000
C     0.844000000    -4.142000000     2.559000000
C     0.602000000    -4.661000000     1.304000000
H    -0.386000000    -5.074000000     1.120000000
C     1.554000000    -4.479000000     0.332000000
O     1.260000000    -4.858000000    -0.946000000
C     2.791000000    -3.856000000     0.602000000
C     3.919000000    -3.952000000    -0.419000000
H     4.941000000    -3.926000000    -0.036000000
C     3.955000000    -2.706000000    -1.316000000
C     4.621000000    -1.570000000    -0.841000000
H     5.205000000    -1.724000000     0.062000000
H     3.875000000    -4.767000000    -1.144000000
C     3.025000000    -3.312000000     1.884000000
H     3.929000000    -2.769000000     2.150000000
C     2.066000000    -3.519000000     2.912000000
C     2.234000000    -2.801000000     4.223000000
H     3.301000000    -2.935000000     4.411000000
H     1.650000000    -3.400000000     4.925000000
C     1.892000000    -1.292000000     4.103000000
C     2.850000000    -0.394000000     3.938000000
H     3.897000000    -0.663000000     3.819000000
C     0.597000000    -0.905000000     4.236000000
C     0.241000000     0.433000000     4.280000000
H    -0.802000000     0.727000000     4.365000000
C     1.234000000     1.373000000     4.146000000
O     0.728000000     2.666000000     4.131000000
C     0.799000000     3.357000000     2.794000000
C    -0.404000000     4.249000000     2.609000000
C    -0.484000000     5.109000000     1.510000000
H     0.343000000     5.156000000     0.806000000
C    -1.477000000     4.063000000     3.475000000
H    -1.445000000     3.271000000     4.219000000
O     2.121000000     4.074000000     2.568000000
H     0.704000000     2.514000000     2.093000000
C     2.565000000     0.995000000     4.064000000
C     3.671000000     1.918000000     3.886000000
H     4.617000000     1.520000000     4.258000000
H     3.454000000     2.805000000     4.486000000
C     3.779000000     2.214000000     2.369000000
C     4.499000000     1.416000000     1.497000000
H     5.150000000     0.620000000     1.848000000
C     3.018000000     3.308000000     1.839000000
C     2.984000000     3.518000000     0.512000000
H     2.324000000     4.301000000     0.145000000
C     3.704000000     2.791000000    -0.374000000
O     3.484000000     2.941000000    -1.675000000
C     2.650000000     1.977000000    -2.346000000
C     1.699000000     2.590000000    -3.349000000
C     1.300000000     3.897000000    -3.213000000
H     1.800000000     4.625000000    -2.579000000
C     1.168000000     1.808000000    -4.385000000
H     1.444000000     0.781000000    -4.612000000
O     3.480000000     1.087000000    -3.094000000
H     2.009000000     1.433000000    -1.637000000
C     4.477000000     1.671000000     0.114000000
C     5.322000000     0.797000000    -0.782000000
H     6.196000000     0.373000000    -0.284000000
H     5.790000000     1.364000000    -1.589000000
C     4.515000000    -0.307000000    -1.425000000
C     3.690000000    -0.229000000    -2.564000000
C     2.944000000    -1.315000000    -3.035000000
H     2.105000000    -1.143000000    -3.704000000
C     3.110000000    -2.595000000    -2.449000000
O     2.111000000    -3.501000000    -2.790000000
C     0.994000000    -3.783000000    -1.929000000
H     0.695000000    -2.905000000    -1.337000000
C    -0.225000000    -3.980000000    -2.775000000
C    -1.344000000    -4.494000000    -2.205000000
H    -1.286000000    -4.875000000    -1.188000000
C    -0.240000000    -3.384000000    -4.022000000
H     0.601000000    -2.885000000    -4.496000000
C    -1.399000000    -3.464000000    -4.807000000
O    -1.515000000    -2.700000000    -5.951000000
C    -2.519000000    -4.006000000    -4.253000000
H    -3.468000000    -3.985000000    -4.784000000
C    -2.505000000    -4.523000000    -2.970000000
O    -3.667000000    -5.155000000    -2.492000000
C    -3.791000000    -5.690000000    -1.301000000
C    -4.338000000    -4.886000000    -0.209000000
H    -4.590000000    -3.839000000    -0.351000000
C    -3.695000000    -7.049000000    -1.068000000
H    -3.327000000    -7.641000000    -1.903000000
C    -4.080000000    -7.623000000     0.156000000
H    -4.208000000    -8.701000000     0.216000000
C    -4.546000000    -6.810000000     1.160000000
H    -4.908000000    -7.367000000     2.020000000
C    -4.637000000    -5.415000000     1.043000000
O    -5.242000000    -4.577000000     1.973000000
C    -4.511000000    -3.494000000     2.435000000
C    -5.242000000    -2.325000000     2.809000000
H    -6.321000000    -2.212000000     2.887000000
C    -4.498000000    -1.240000000     3.325000000
O    -5.199000000    -0.043000000     3.537000000
C    -4.723000000     0.977000000     4.293000000
C    -4.494000000     2.226000000     3.774000000
H    -4.769000000     2.471000000     2.751000000
C    -4.436000000     0.697000000     5.619000000
H    -4.552000000    -0.322000000     5.978000000
C    -4.020000000     1.723000000     6.470000000
H    -3.872000000     1.430000000     7.506000000
C    -3.773000000     2.971000000     6.030000000
H    -3.418000000     3.803000000     6.633000000
C    -3.945000000     3.199000000     4.656000000
O    -3.806000000     4.432000000     4.123000000
C    -2.701000000     4.732000000     3.339000000
C    -2.809000000     5.466000000     2.107000000
H    -3.801000000     5.898000000     2.003000000
C    -1.725000000     5.712000000     1.212000000
O    -1.892000000     6.619000000     0.215000000
C    -1.064000000     6.942000000    -0.810000000
C    -0.804000000     6.128000000    -1.873000000
H    -1.381000000     5.213000000    -1.974000000
C    -0.306000000     8.170000000    -0.794000000
H    -0.447000000     8.877000000     0.019000000
C     0.574000000     8.535000000    -1.827000000
H     1.150000000     9.447000000    -1.690000000
C     0.648000000     7.701000000    -2.885000000
H     1.144000000     8.021000000    -3.798000000
C     0.038000000     6.503000000    -2.922000000
O     0.132000000     5.874000000    -4.103000000
C     0.444000000     4.498000000    -4.170000000
C     0.011000000     3.731000000    -5.195000000
H    -0.587000000     4.248000000    -5.942000000
C     0.347000000     2.399000000    -5.358000000
O     0.085000000     1.806000000    -6.571000000
C     0.200000000     0.470000000    -6.818000000
C     1.086000000     0.077000000    -7.826000000
H     1.713000000     0.845000000    -8.271000000
C     1.208000000    -1.325000000    -8.052000000
H     1.854000000    -1.594000000    -8.884000000
C     0.297000000    -2.240000000    -7.490000000
H     0.260000000    -3.284000000    -7.789000000
C    -0.587000000    -1.789000000    -6.503000000
C    -0.590000000    -0.421000000    -6.152000000
H    -1.119000000    -0.025000000    -5.289000000
C    -1.010000000     1.689000000    -1.419000000
H    -1.030000000     2.704000000    -1.809000000
C    -0.103000000     1.453000000    -0.423000000
H     0.493000000     2.251000000     0.013000000
C     0.019000000     0.157000000     0.138000000
H     0.818000000     0.039000000     0.912000000
C    -0.703000000    -0.935000000    -0.364000000
H    -0.573000000    -1.903000000     0.111000000
C    -1.601000000    -0.667000000    -1.463000000
H    -2.257000000    -1.444000000    -1.847000000
C    -1.790000000     0.644000000    -2.001000000
C    -2.828000000     0.810000000    -3.102000000
O    -3.821000000     0.222000000    -3.029000000
O    -2.751000000     1.761000000    -3.853000000
O    -5.924000000     1.653000000    -4.581000000
H    -5.526000000     2.158000000    -5.290000000
H    -5.224000000     1.553000000    -3.936000000
O    -6.682000000     3.013000000    -1.277000000
H    -7.534000000     3.275000000    -1.626000000
H    -6.052000000     3.548000000    -1.759000000
O    -6.347000000     0.812000000     0.171000000
H    -5.532000000     1.001000000     0.636000000
H    -6.603000000     1.649000000    -0.215000000
O    -7.868000000     0.240000000    -3.078000000
H    -7.280000000    -0.256000000    -2.509000000
H    -7.292000000     0.637000000    -3.731000000
O    -2.007000000     1.884000000    -8.215000000
H    -1.619000000     1.877000000    -9.090000000
H    -1.326000000     1.522000000    -7.648000000
O    -2.607000000     6.566000000    -4.974000000
H    -2.989000000     6.929000000    -4.174000000
H    -1.757000000     6.224000000    -4.700000000
O    -7.511000000    -2.939000000    -1.663000000
H    -7.564000000    -3.011000000    -0.710000000
H    -6.835000000    -2.279000000    -1.816000000
O    -3.832000000     3.967000000    -2.771000000
H    -4.318000000     4.379000000    -3.484000000
H    -3.493000000     3.156000000    -3.149000000
O    -3.313000000    -0.896000000    -8.112000000
H    -3.407000000    -1.221000000    -7.217000000
H    -3.420000000    -1.672000000    -8.662000000
O    -6.388000000     4.372000000    -7.122000000
H    -6.525000000     3.485000000    -7.455000000
H    -6.763000000     4.358000000    -6.242000000
O    -3.524000000     1.163000000     0.489000000
H    -2.983000000     0.374000000     0.517000000
H    -3.376000000     1.523000000    -0.386000000
O    -5.928000000    -2.838000000    -6.484000000
H    -5.345000000    -2.161000000    -6.141000000
H    -5.471000000    -3.660000000    -6.307000000
O    -5.772000000     5.632000000    -4.037000000
H    -5.733000000     6.302000000    -3.355000000
H    -5.590000000     6.106000000    -4.849000000
O    -3.812000000     2.276000000    -6.139000000
H    -3.109000000     2.427000000    -6.770000000
H    -3.362000000     1.995000000    -5.342000000
O    -4.415000000     5.822000000    -0.772000000
H    -3.861000000     5.454000000    -1.460000000
H    -3.868000000     6.487000000    -0.354000000
O    -5.531000000    -0.987000000    -1.726000000
H    -4.750000000    -0.634000000    -2.151000000
H    -5.736000000    -0.353000000    -1.038000000
O    -4.469000000    -0.846000000    -5.524000000
H    -4.521000000     0.030000000    -5.906000000
H    -4.110000000    -0.704000000    -4.648000000
O    -4.300000000     1.085000000    -9.687000000
H    -4.307000000     0.173000000    -9.398000000
H    -3.740000000     1.533000000    -9.053000000
O    -5.594000000     4.164000000     0.885000000
H    -4.926000000     4.540000000     0.311000000
H    -5.944000000     3.423000000     0.391000000
