215
-1445.38332
C    -3.108000000    -1.962000000     3.744000000
H    -2.550000000    -1.713000000     4.642000000
C    -2.435000000    -2.737000000     2.822000000
C    -3.158000000    -3.138000000     1.677000000
H    -2.649000000    -3.605000000     0.837000000
C    -0.939000000    -2.809000000     2.819000000
O    -0.397000000    -2.570000000     4.087000000
H    -0.614000000    -2.039000000     2.105000000
O    -0.347000000    -4.073000000     2.390000000
C     0.804000000    -4.075000000     1.569000000
C     0.502000000    -4.441000000     0.231000000
H    -0.496000000    -4.701000000    -0.112000000
C     1.571000000    -4.446000000    -0.685000000
O     1.259000000    -4.686000000    -1.976000000
C     2.883000000    -4.102000000    -0.320000000
C     3.975000000    -4.078000000    -1.370000000
H     4.866000000    -4.461000000    -0.868000000
C     3.925000000    -2.628000000    -1.859000000
C     4.799000000    -1.700000000    -1.307000000
H     5.489000000    -2.033000000    -0.536000000
H     3.686000000    -4.770000000    -2.164000000
C     3.108000000    -3.885000000     1.053000000
H     4.162000000    -3.732000000     1.270000000
C     2.084000000    -3.952000000     2.033000000
C     2.382000000    -3.664000000     3.427000000
H     3.446000000    -3.873000000     3.557000000
H     1.852000000    -4.403000000     4.033000000
C     2.012000000    -2.163000000     3.653000000
C     3.044000000    -1.198000000     3.695000000
H     4.053000000    -1.576000000     3.553000000
C     0.703000000    -1.789000000     4.067000000
C     0.415000000    -0.421000000     4.322000000
H    -0.628000000    -0.139000000     4.441000000
C     1.405000000     0.530000000     4.201000000
O     0.988000000     1.873000000     4.210000000
C     0.935000000     2.636000000     3.035000000
C    -0.302000000     3.494000000     3.029000000
C    -0.245000000     4.703000000     2.399000000
H     0.734000000     4.980000000     2.015000000
C    -1.518000000     3.131000000     3.601000000
H    -1.611000000     2.165000000     4.090000000
O     2.225000000     3.386000000     2.907000000
H     0.830000000     1.930000000     2.198000000
C     2.767000000     0.125000000     4.039000000
C     3.842000000     1.178000000     3.869000000
H     4.844000000     0.806000000     4.096000000
H     3.676000000     1.976000000     4.596000000
C     3.915000000     1.680000000     2.456000000
C     4.747000000     1.060000000     1.472000000
H     5.169000000     0.084000000     1.696000000
C     3.183000000     2.862000000     2.058000000
C     3.274000000     3.357000000     0.764000000
H     2.694000000     4.244000000     0.524000000
C     4.126000000     2.816000000    -0.162000000
O     3.862000000     3.184000000    -1.442000000
C     3.043000000     2.291000000    -2.195000000
C     1.928000000     2.980000000    -2.964000000
C     1.708000000     4.341000000    -2.698000000
H     2.398000000     4.968000000    -2.138000000
C     0.941000000     2.262000000    -3.561000000
H     0.937000000     1.179000000    -3.647000000
O     3.863000000     1.425000000    -2.982000000
H     2.575000000     1.604000000    -1.475000000
C     4.763000000     1.598000000     0.180000000
C     5.560000000     0.773000000    -0.872000000
H     6.404000000     0.315000000    -0.352000000
H     5.988000000     1.456000000    -1.610000000
C     4.742000000    -0.296000000    -1.623000000
C     3.945000000     0.055000000    -2.711000000
C     3.060000000    -0.854000000    -3.283000000
H     2.363000000    -0.496000000    -4.037000000
C     3.066000000    -2.209000000    -2.936000000
O     2.072000000    -3.021000000    -3.465000000
C     0.946000000    -3.559000000    -2.719000000
H     0.658000000    -2.826000000    -1.952000000
C    -0.277000000    -3.680000000    -3.613000000
C    -1.320000000    -4.530000000    -3.263000000
H    -1.210000000    -5.171000000    -2.392000000
C    -0.422000000    -2.915000000    -4.746000000
H     0.353000000    -2.187000000    -4.971000000
C    -1.572000000    -2.961000000    -5.511000000
O    -1.840000000    -2.104000000    -6.588000000
C    -2.600000000    -3.794000000    -5.112000000
H    -3.473000000    -3.884000000    -5.754000000
C    -2.438000000    -4.711000000    -4.043000000
O    -3.539000000    -5.497000000    -3.635000000
C    -4.161000000    -5.530000000    -2.403000000
C    -4.230000000    -4.373000000    -1.555000000
H    -3.899000000    -3.403000000    -1.917000000
C    -4.817000000    -6.745000000    -2.035000000
H    -4.767000000    -7.644000000    -2.644000000
C    -5.487000000    -6.760000000    -0.849000000
H    -5.881000000    -7.691000000    -0.450000000
C    -5.633000000    -5.672000000    -0.033000000
H    -6.203000000    -5.753000000     0.889000000
C    -4.935000000    -4.478000000    -0.326000000
O    -5.194000000    -3.339000000     0.441000000
C    -4.522000000    -2.897000000     1.540000000
C    -5.142000000    -2.154000000     2.483000000
H    -6.206000000    -1.944000000     2.417000000
C    -4.460000000    -1.620000000     3.561000000
O    -5.087000000    -0.895000000     4.502000000
C    -4.655000000     0.251000000     5.064000000
C    -4.656000000     1.451000000     4.370000000
H    -5.069000000     1.443000000     3.365000000
C    -4.398000000     0.363000000     6.390000000
H    -4.432000000    -0.584000000     6.921000000
C    -3.879000000     1.484000000     7.047000000
H    -3.336000000     1.378000000     7.983000000
C    -3.690000000     2.623000000     6.281000000
H    -3.294000000     3.532000000     6.728000000
C    -4.165000000     2.594000000     4.973000000
O    -3.887000000     3.718000000     4.179000000
C    -2.616000000     4.034000000     3.595000000
C    -2.553000000     5.216000000     2.892000000
H    -3.470000000     5.793000000     2.810000000
C    -1.350000000     5.527000000     2.263000000
O    -1.337000000     6.699000000     1.573000000
C    -0.360000000     6.942000000     0.650000000
C    -0.424000000     6.367000000    -0.664000000
H    -1.161000000     5.622000000    -0.952000000
C     0.480000000     8.019000000     0.901000000
H     0.511000000     8.535000000     1.857000000
C     1.190000000     8.560000000    -0.194000000
H     1.752000000     9.452000000     0.069000000
C     1.191000000     7.945000000    -1.450000000
H     1.756000000     8.405000000    -2.256000000
C     0.472000000     6.757000000    -1.664000000
O     0.433000000     6.304000000    -2.923000000
C     0.598000000     5.015000000    -3.208000000
C    -0.405000000     4.291000000    -3.913000000
H    -1.325000000     4.772000000    -4.235000000
C    -0.194000000     2.942000000    -4.078000000
O    -1.098000000     2.149000000    -4.748000000
C    -0.688000000     1.215000000    -5.672000000
C     0.380000000     1.366000000    -6.532000000
H     0.878000000     2.331000000    -6.585000000
C     0.698000000     0.314000000    -7.383000000
H     1.669000000     0.314000000    -7.871000000
C    -0.014000000    -0.834000000    -7.383000000
H     0.308000000    -1.605000000    -8.079000000
C    -1.179000000    -0.924000000    -6.632000000
C    -1.510000000     0.086000000    -5.760000000
H    -2.350000000    -0.142000000    -5.109000000
C    -1.233000000     1.837000000    -1.064000000
H    -1.609000000     2.857000000    -1.038000000
C     0.041000000     1.614000000    -0.539000000
H     0.638000000     2.442000000    -0.167000000
C     0.514000000     0.322000000    -0.395000000
H     1.460000000     0.202000000     0.011000000
C    -0.315000000    -0.802000000    -0.740000000
H    -0.026000000    -1.832000000    -0.545000000
C    -1.550000000    -0.483000000    -1.313000000
H    -2.191000000    -1.276000000    -1.689000000
C    -2.025000000     0.805000000    -1.533000000
C    -3.399000000     0.935000000    -2.061000000
O    -3.980000000     0.017000000    -2.549000000
O    -3.914000000     2.066000000    -2.064000000
O    -6.432000000     2.579000000    -3.085000000
H    -5.609000000     2.127000000    -2.896000000
H    -6.572000000     3.148000000    -2.328000000
O    -4.860000000    -1.319000000    -7.216000000
H    -5.281000000    -0.610000000    -7.702000000
H    -4.935000000    -1.056000000    -6.298000000
O    -8.621000000     1.821000000     0.115000000
H    -7.668000000     1.737000000     0.089000000
H    -8.797000000     2.680000000    -0.270000000
O    -8.445000000     4.477000000    -0.698000000
H    -7.685000000     5.037000000    -0.540000000
H    -8.951000000     4.943000000    -1.363000000
O    -3.556000000     5.804000000    -2.043000000
H    -3.143000000     6.628000000    -2.303000000
H    -3.560000000     5.276000000    -2.841000000
O    -5.811000000     6.073000000    -0.621000000
H    -5.173000000     6.088000000    -1.334000000
H    -5.458000000     6.681000000     0.030000000
O    -3.181000000     3.518000000    -6.644000000
H    -3.509000000     2.785000000    -7.165000000
H    -3.234000000     3.211000000    -5.739000000
O    -4.448000000     3.538000000     0.511000000
H    -4.897000000     4.334000000     0.228000000
H    -3.853000000     3.330000000    -0.209000000
O    -3.775000000     3.723000000    -4.033000000
H    -4.722000000     3.771000000    -4.158000000
H    -3.660000000     3.126000000    -3.293000000
O    -6.393000000     4.325000000     2.683000000
H    -6.058000000     4.981000000     3.293000000
H    -5.610000000     3.932000000     2.299000000
O    -6.110000000    -3.757000000    -5.011000000
H    -6.080000000    -2.856000000    -4.690000000
H    -6.164000000    -4.292000000    -4.219000000
O    -6.082000000     1.636000000    -0.289000000
H    -5.415000000     2.253000000     0.012000000
H    -5.683000000     1.199000000    -1.040000000
O    -0.646000000     4.196000000    -7.451000000
H    -0.598000000     3.843000000    -8.340000000
H    -1.482000000     3.875000000    -7.112000000
O    -4.149000000     5.932000000    -6.216000000
H    -3.574000000     6.215000000    -5.505000000
H    -3.901000000     5.020000000    -6.375000000
O    -5.399000000     0.069000000    -4.721000000
H    -4.779000000     0.001000000    -3.995000000
H    -5.842000000     0.906000000    -4.580000000
O    -7.317000000     2.370000000    -5.745000000
H    -6.782000000     2.554000000    -4.973000000
H    -7.219000000     3.148000000    -6.294000000
O    -6.159000000    -1.828000000    -1.791000000
H    -5.800000000    -1.945000000    -0.911000000
H    -5.448000000    -1.423000000    -2.288000000
O    -8.567000000    -0.163000000    -6.367000000
H    -9.199000000     0.170000000    -5.730000000
H    -7.776000000     0.353000000    -6.211000000
O    -8.845000000    -2.441000000    -2.771000000
H    -9.445000000    -1.695000000    -2.741000000
H    -8.068000000    -2.141000000    -2.299000000
