215
-1459.41105
C    -4.289000000    -1.298000000     3.172000000
H    -3.907000000    -0.707000000     4.001000000
C    -3.488000000    -2.298000000     2.594000000
C    -3.830000000    -2.874000000     1.345000000
H    -3.183000000    -3.615000000     0.883000000
C    -2.007000000    -2.494000000     3.130000000
O    -1.863000000    -1.779000000     4.372000000
H    -1.508000000    -1.944000000     2.319000000
O    -1.562000000    -3.860000000     3.193000000
C    -0.306000000    -4.076000000     2.666000000
C    -0.190000000    -4.505000000     1.326000000
H    -1.095000000    -4.829000000     0.817000000
C     1.026000000    -4.558000000     0.691000000
O     1.022000000    -4.814000000    -0.688000000
C     2.201000000    -4.121000000     1.374000000
C     3.525000000    -4.083000000     0.721000000
H     4.366000000    -4.140000000     1.415000000
C     3.822000000    -2.876000000    -0.146000000
C     4.339000000    -1.699000000     0.481000000
H     4.434000000    -1.580000000     1.557000000
H     3.577000000    -4.940000000     0.047000000
C     2.094000000    -3.717000000     2.713000000
H     2.955000000    -3.285000000     3.216000000
C     0.870000000    -3.735000000     3.320000000
C     0.726000000    -3.087000000     4.713000000
H     1.589000000    -3.248000000     5.362000000
H    -0.087000000    -3.444000000     5.349000000
C     0.602000000    -1.575000000     4.663000000
C     1.702000000    -0.676000000     4.678000000
H     2.674000000    -1.123000000     4.482000000
C    -0.739000000    -1.054000000     4.607000000
C    -0.905000000     0.315000000     4.508000000
H    -1.920000000     0.695000000     4.424000000
C     0.236000000     1.202000000     4.536000000
O    -0.002000000     2.569000000     4.209000000
C     0.189000000     3.161000000     2.955000000
C    -0.847000000     4.195000000     2.663000000
C    -0.638000000     5.253000000     1.724000000
H     0.372000000     5.340000000     1.332000000
C    -2.209000000     3.970000000     3.098000000
H    -2.355000000     3.064000000     3.680000000
O     1.506000000     3.815000000     2.982000000
H     0.131000000     2.349000000     2.215000000
C     1.543000000     0.693000000     4.542000000
C     2.734000000     1.642000000     4.528000000
H     3.529000000     1.175000000     5.114000000
H     2.476000000     2.541000000     5.091000000
C     3.260000000     2.089000000     3.168000000
C     4.268000000     1.292000000     2.550000000
H     4.719000000     0.491000000     3.131000000
C     2.558000000     3.110000000     2.462000000
C     2.865000000     3.351000000     1.140000000
H     2.412000000     4.135000000     0.538000000
C     3.778000000     2.537000000     0.468000000
O     3.898000000     2.641000000    -0.953000000
C     3.210000000     1.698000000    -1.768000000
C     2.574000000     2.289000000    -2.990000000
C     1.965000000     3.522000000    -2.907000000
H     2.100000000     4.152000000    -2.031000000
C     2.542000000     1.586000000    -4.171000000
H     2.875000000     0.558000000    -4.286000000
O     4.222000000     0.741000000    -2.180000000
H     2.390000000     1.301000000    -1.151000000
C     4.507000000     1.504000000     1.174000000
C     5.450000000     0.579000000     0.382000000
H     6.247000000     0.370000000     1.098000000
H     5.995000000     1.241000000    -0.294000000
C     4.745000000    -0.600000000    -0.256000000
C     4.268000000    -0.490000000    -1.567000000
C     3.634000000    -1.566000000    -2.210000000
H     3.250000000    -1.495000000    -3.224000000
C     3.454000000    -2.763000000    -1.464000000
O     2.726000000    -3.772000000    -2.042000000
C     1.260000000    -3.878000000    -1.728000000
H     1.118000000    -2.917000000    -1.211000000
C     0.502000000    -4.146000000    -3.006000000
C    -0.739000000    -4.808000000    -2.996000000
H    -1.087000000    -5.212000000    -2.048000000
C     0.895000000    -3.510000000    -4.182000000
H     1.797000000    -2.904000000    -4.206000000
C     0.146000000    -3.699000000    -5.343000000
O     0.574000000    -3.207000000    -6.543000000
C    -1.084000000    -4.285000000    -5.349000000
H    -1.636000000    -4.409000000    -6.277000000
C    -1.552000000    -4.746000000    -4.105000000
O    -2.792000000    -5.281000000    -4.027000000
C    -3.432000000    -5.262000000    -2.787000000
C    -3.996000000    -4.061000000    -2.300000000
H    -3.894000000    -3.177000000    -2.924000000
C    -3.752000000    -6.421000000    -2.100000000
H    -3.399000000    -7.374000000    -2.486000000
C    -4.532000000    -6.352000000    -0.928000000
H    -4.764000000    -7.247000000    -0.355000000
C    -5.008000000    -5.145000000    -0.478000000
H    -5.450000000    -5.075000000     0.513000000
C    -4.766000000    -3.946000000    -1.129000000
O    -5.266000000    -2.815000000    -0.674000000
C    -4.968000000    -2.363000000     0.647000000
C    -5.772000000    -1.397000000     1.257000000
H    -6.675000000    -1.015000000     0.789000000
C    -5.444000000    -0.889000000     2.523000000
O    -6.176000000     0.168000000     2.926000000
C    -5.714000000     1.233000000     3.674000000
C    -5.249000000     2.408000000     3.031000000
H    -5.281000000     2.340000000     1.946000000
C    -5.808000000     1.214000000     5.078000000
H    -6.292000000     0.356000000     5.537000000
C    -5.507000000     2.338000000     5.797000000
H    -5.466000000     2.290000000     6.882000000
C    -5.178000000     3.577000000     5.154000000
H    -5.030000000     4.515000000     5.683000000
C    -4.999000000     3.553000000     3.743000000
O    -4.549000000     4.666000000     3.086000000
C    -3.250000000     4.816000000     2.681000000
C    -2.906000000     5.819000000     1.736000000
H    -3.722000000     6.449000000     1.393000000
C    -1.658000000     6.037000000     1.237000000
O    -1.352000000     7.050000000     0.309000000
C    -0.399000000     6.915000000    -0.690000000
C    -0.486000000     5.919000000    -1.646000000
H    -1.176000000     5.081000000    -1.597000000
C     0.576000000     7.876000000    -0.683000000
H     0.529000000     8.680000000     0.047000000
C     1.543000000     7.923000000    -1.696000000
H     2.246000000     8.752000000    -1.659000000
C     1.522000000     6.894000000    -2.701000000
H     2.132000000     6.989000000    -3.596000000
C     0.520000000     5.861000000    -2.607000000
O     0.387000000     5.095000000    -3.687000000
C     1.157000000     4.011000000    -3.888000000
C     1.105000000     3.288000000    -5.095000000
H     0.465000000     3.653000000    -5.894000000
C     1.798000000     2.103000000    -5.218000000
O     1.728000000     1.470000000    -6.425000000
C     2.145000000     0.179000000    -6.674000000
C     3.468000000    -0.165000000    -7.050000000
H     4.252000000     0.519000000    -7.364000000
C     3.792000000    -1.497000000    -7.276000000
H     4.783000000    -1.803000000    -7.599000000
C     2.781000000    -2.497000000    -7.129000000
H     2.974000000    -3.530000000    -7.406000000
C     1.508000000    -2.153000000    -6.635000000
C     1.171000000    -0.773000000    -6.529000000
H     0.145000000    -0.487000000    -6.313000000
C    -0.639000000     0.946000000    -1.814000000
H    -0.374000000     1.873000000    -2.316000000
C    -0.149000000     0.776000000    -0.494000000
H     0.427000000     1.567000000    -0.020000000
C    -0.191000000    -0.477000000     0.123000000
H     0.188000000    -0.671000000     1.046000000
C    -0.789000000    -1.508000000    -0.544000000
H    -0.788000000    -2.451000000    -0.003000000
C    -1.478000000    -1.312000000    -1.745000000
H    -2.071000000    -2.134000000    -2.136000000
C    -1.412000000    -0.089000000    -2.436000000
C    -1.851000000     0.046000000    -3.827000000
O    -2.673000000    -0.693000000    -4.337000000
O    -1.428000000     0.975000000    -4.510000000
O    -3.856000000     3.727000000    -1.345000000
H    -3.255000000     3.827000000    -2.083000000
H    -4.309000000     2.901000000    -1.515000000
O    -6.640000000    -0.534000000    -6.701000000
H    -6.744000000    -1.100000000    -7.466000000
H    -6.214000000    -1.089000000    -6.048000000
O    -3.924000000     3.157000000    -9.201000000
H    -3.360000000     3.764000000    -8.722000000
H    -3.352000000     2.422000000    -9.420000000
O    -5.255000000    -1.708000000    -4.738000000
H    -4.386000000    -1.415000000    -4.465000000
H    -5.100000000    -2.549000000    -5.169000000
O    -2.243000000     3.369000000    -3.791000000
H    -1.821000000     2.598000000    -4.171000000
H    -1.592000000     4.065000000    -3.878000000
O    -4.417000000     0.363000000    -1.162000000
H    -4.572000000     0.242000000    -2.099000000
H    -3.666000000    -0.198000000    -0.969000000
O    -4.177000000     0.397000000    -7.687000000
H    -5.077000000     0.440000000    -7.364000000
H    -3.941000000     1.308000000    -7.861000000
O    -5.447000000    -4.759000000    -5.315000000
H    -4.903000000    -4.687000000    -6.100000000
H    -4.822000000    -4.898000000    -4.604000000
O    -2.056000000    -1.365000000    -7.484000000
H    -1.887000000    -1.189000000    -6.559000000
H    -2.464000000    -0.563000000    -7.810000000
O    -5.415000000     3.599000000    -5.751000000
H    -5.080000000     4.333000000    -5.236000000
H    -5.257000000     2.831000000    -5.203000000
O    -0.897000000    -2.494000000    -9.680000000
H    -1.304000000    -2.234000000    -8.853000000
H    -1.340000000    -3.309000000    -9.918000000
O    -6.998000000    -1.080000000    -2.899000000
H    -7.607000000    -0.508000000    -3.367000000
H    -6.326000000    -1.294000000    -3.547000000
O    -1.118000000     1.983000000    -7.046000000
H    -0.427000000     1.555000000    -7.551000000
H    -1.152000000     1.494000000    -6.224000000
O    -7.281000000     1.515000000    -0.022000000
H    -7.537000000     0.770000000    -0.566000000
H    -6.380000000     1.322000000     0.239000000
O    -7.010000000     1.589000000    -3.585000000
H    -6.149000000     1.254000000    -3.834000000
H    -7.457000000     1.745000000    -4.417000000
O    -4.284000000    -3.054000000    -7.174000000
H    -5.151000000    -2.797000000    -7.488000000
H    -3.741000000    -2.278000000    -7.308000000
O    -0.126000000     1.170000000    -9.845000000
H    -1.005000000     0.793000000    -9.846000000
H    -0.263000000     2.098000000   -10.035000000
O    -2.032000000     4.592000000    -7.544000000
H    -1.338000000     5.077000000    -7.099000000
H    -1.786000000     3.673000000    -7.442000000
O    -4.428000000     1.583000000    -4.184000000
H    -3.936000000     0.780000000    -4.356000000
H    -3.757000000     2.257000000    -4.074000000
