215
-1448.50412
C    -3.940000000    -0.694000000     3.361000000
H    -3.622000000     0.089000000     4.044000000
C    -3.087000000    -1.745000000     2.985000000
C    -3.553000000    -2.757000000     2.195000000
H    -2.852000000    -3.536000000     1.905000000
C    -1.659000000    -1.651000000     3.455000000
O    -1.539000000    -0.870000000     4.648000000
H    -1.064000000    -1.257000000     2.617000000
O    -1.073000000    -2.939000000     3.759000000
C     0.194000000    -3.141000000     3.302000000
C     0.294000000    -3.950000000     2.161000000
H    -0.642000000    -4.310000000     1.740000000
C     1.568000000    -4.089000000     1.592000000
O     1.606000000    -4.729000000     0.372000000
C     2.698000000    -3.551000000     2.169000000
C     3.999000000    -3.706000000     1.473000000
H     4.857000000    -3.566000000     2.134000000
C     4.169000000    -2.666000000     0.382000000
C     4.615000000    -1.375000000     0.718000000
H     4.876000000    -1.191000000     1.757000000
H     4.078000000    -4.716000000     1.067000000
C     2.560000000    -2.810000000     3.344000000
H     3.453000000    -2.269000000     3.648000000
C     1.301000000    -2.561000000     3.930000000
C     1.201000000    -1.652000000     5.088000000
H     2.121000000    -1.602000000     5.674000000
H     0.379000000    -1.999000000     5.717000000
C     0.722000000    -0.229000000     4.789000000
C     1.687000000     0.674000000     4.725000000
H     2.713000000     0.426000000     4.984000000
C    -0.650000000     0.128000000     4.596000000
C    -0.999000000     1.449000000     4.306000000
H    -2.030000000     1.721000000     4.095000000
C     0.050000000     2.367000000     4.056000000
O    -0.280000000     3.574000000     3.481000000
C     0.026000000     3.858000000     2.107000000
C    -1.161000000     4.578000000     1.316000000
C    -0.876000000     5.414000000     0.225000000
H     0.137000000     5.564000000    -0.142000000
C    -2.434000000     4.221000000     1.744000000
H    -2.586000000     3.406000000     2.447000000
O     1.329000000     4.654000000     2.032000000
H     0.151000000     2.872000000     1.636000000
C     1.391000000     1.964000000     4.316000000
C     2.533000000     2.902000000     3.942000000
H     3.437000000     2.690000000     4.516000000
H     2.148000000     3.899000000     4.164000000
C     2.915000000     2.969000000     2.502000000
C     3.825000000     1.994000000     2.046000000
H     4.415000000     1.347000000     2.690000000
C     2.340000000     3.896000000     1.637000000
C     2.643000000     3.709000000     0.259000000
H     2.012000000     4.297000000    -0.403000000
C     3.518000000     2.736000000    -0.167000000
O     3.716000000     2.541000000    -1.515000000
C     3.207000000     1.409000000    -2.207000000
C     2.465000000     1.703000000    -3.452000000
C     1.848000000     2.911000000    -3.646000000
H     1.969000000     3.633000000    -2.843000000
C     2.453000000     0.809000000    -4.534000000
H     3.037000000    -0.099000000    -4.404000000
O     4.311000000     0.450000000    -2.392000000
H     2.422000000     0.964000000    -1.577000000
C     4.200000000     1.876000000     0.719000000
C     5.359000000     1.022000000     0.243000000
H     6.053000000     0.775000000     1.049000000
H     5.944000000     1.390000000    -0.602000000
C     4.807000000    -0.356000000    -0.219000000
C     4.445000000    -0.615000000    -1.529000000
C     3.854000000    -1.852000000    -1.900000000
H     3.459000000    -1.954000000    -2.907000000
C     3.760000000    -2.861000000    -0.994000000
O     3.124000000    -3.970000000    -1.329000000
C     1.753000000    -3.983000000    -0.891000000
H     1.490000000    -2.966000000    -0.562000000
C     0.669000000    -4.418000000    -1.882000000
C    -0.493000000    -5.007000000    -1.481000000
H    -0.592000000    -5.186000000    -0.413000000
C     0.810000000    -4.062000000    -3.221000000
H     1.786000000    -3.677000000    -3.502000000
C    -0.184000000    -4.359000000    -4.140000000
O     0.039000000    -4.253000000    -5.498000000
C    -1.356000000    -5.067000000    -3.727000000
H    -2.095000000    -5.381000000    -4.460000000
C    -1.517000000    -5.297000000    -2.388000000
O    -2.549000000    -6.119000000    -2.068000000
C    -3.167000000    -6.081000000    -0.797000000
C    -3.951000000    -4.999000000    -0.510000000
H    -3.970000000    -4.259000000    -1.306000000
C    -3.070000000    -7.148000000     0.111000000
H    -2.531000000    -8.048000000    -0.172000000
C    -3.766000000    -7.097000000     1.263000000
H    -3.769000000    -7.966000000     1.917000000
C    -4.554000000    -5.988000000     1.599000000
H    -5.031000000    -5.901000000     2.571000000
C    -4.667000000    -4.929000000     0.703000000
O    -5.348000000    -3.764000000     0.994000000
C    -4.922000000    -2.834000000     1.896000000
C    -5.806000000    -1.789000000     2.304000000
H    -6.837000000    -1.812000000     1.960000000
C    -5.256000000    -0.732000000     3.028000000
O    -6.141000000     0.183000000     3.648000000
C    -5.893000000     1.542000000     3.575000000
C    -5.427000000     2.269000000     2.417000000
H    -5.251000000     1.692000000     1.513000000
C    -6.077000000     2.181000000     4.774000000
H    -6.485000000     1.632000000     5.619000000
C    -5.848000000     3.573000000     4.833000000
H    -6.118000000     4.179000000     5.695000000
C    -5.352000000     4.275000000     3.712000000
H    -5.110000000     5.326000000     3.841000000
C    -5.153000000     3.670000000     2.483000000
O    -4.823000000     4.369000000     1.380000000
C    -3.492000000     4.810000000     1.075000000
C    -3.268000000     5.595000000    -0.029000000
H    -4.177000000     5.906000000    -0.537000000
C    -1.947000000     5.936000000    -0.419000000
O    -1.759000000     6.741000000    -1.531000000
C    -0.652000000     6.543000000    -2.388000000
C    -0.566000000     5.430000000    -3.219000000
H    -1.363000000     4.696000000    -3.129000000
C     0.243000000     7.661000000    -2.541000000
H     0.056000000     8.572000000    -1.978000000
C     1.198000000     7.659000000    -3.580000000
H     1.858000000     8.502000000    -3.769000000
C     1.262000000     6.531000000    -4.378000000
H     1.883000000     6.488000000    -5.269000000
C     0.349000000     5.466000000    -4.231000000
O     0.494000000     4.377000000    -5.045000000
C     1.070000000     3.155000000    -4.792000000
C     0.949000000     2.167000000    -5.769000000
H     0.386000000     2.389000000    -6.672000000
C     1.639000000     0.996000000    -5.628000000
O     1.712000000     0.148000000    -6.642000000
C     1.896000000    -1.246000000    -6.556000000
C     2.958000000    -1.815000000    -7.221000000
H     3.643000000    -1.154000000    -7.747000000
C     3.205000000    -3.140000000    -7.157000000
H     4.064000000    -3.566000000    -7.668000000
C     2.212000000    -4.022000000    -6.671000000
H     2.259000000    -5.107000000    -6.712000000
C     1.040000000    -3.440000000    -6.114000000
C     0.948000000    -2.050000000    -6.037000000
H     0.086000000    -1.635000000    -5.522000000
C    -0.695000000     1.331000000    -2.404000000
H    -0.914000000     2.023000000    -3.213000000
C    -0.015000000     1.712000000    -1.247000000
H     0.231000000     2.759000000    -1.091000000
C     0.294000000     0.823000000    -0.245000000
H     0.918000000     1.224000000     0.588000000
C    -0.080000000    -0.502000000    -0.359000000
H     0.155000000    -1.174000000     0.462000000
C    -0.793000000    -0.890000000    -1.483000000
H    -1.021000000    -1.951000000    -1.552000000
C    -1.061000000    -0.026000000    -2.546000000
C    -1.791000000    -0.484000000    -3.790000000
O    -2.160000000    -1.661000000    -3.788000000
O    -1.885000000     0.255000000    -4.752000000
O    -7.900000000    -1.439000000    -4.037000000
H    -7.100000000    -1.435000000    -3.512000000
H    -7.854000000    -0.633000000    -4.550000000
O     2.729000000     1.716000000    -8.692000000
H     2.216000000     1.153000000    -8.113000000
H     2.923000000     1.165000000    -9.451000000
O    -7.689000000    -3.835000000    -1.797000000
H    -7.030000000    -3.296000000    -2.236000000
H    -7.978000000    -3.303000000    -1.055000000
O    -5.570000000     3.876000000    -7.120000000
H    -6.354000000     4.424000000    -7.086000000
H    -5.403000000     3.638000000    -6.208000000
O    -5.466000000     3.390000000    -4.484000000
H    -5.654000000     4.247000000    -4.103000000
H    -6.206000000     2.843000000    -4.221000000
O     0.041000000    -1.151000000    -9.299000000
H    -0.431000000    -0.864000000    -8.518000000
H    -0.561000000    -0.972000000   -10.022000000
O    -2.573000000     1.235000000     0.976000000
H    -2.904000000     0.753000000     0.217000000
H    -1.621000000     1.176000000     0.900000000
O    -2.804000000     5.219000000    -5.695000000
H    -3.739000000     5.221000000    -5.487000000
H    -2.498000000     4.357000000    -5.412000000
O    -4.506000000    -1.849000000    -9.407000000
H    -5.257000000    -1.256000000    -9.381000000
H    -4.242000000    -1.942000000    -8.492000000
O    -2.629000000    -2.506000000    -6.413000000
H    -2.158000000    -1.750000000    -6.764000000
H    -2.283000000    -2.613000000    -5.527000000
O    -4.339000000     0.985000000    -7.443000000
H    -4.636000000     1.874000000    -7.249000000
H    -4.457000000     0.509000000    -6.621000000
O    -5.038000000    -5.206000000    -5.562000000
H    -4.592000000    -4.578000000    -4.993000000
H    -4.843000000    -4.906000000    -6.450000000
O    -4.255000000    -3.290000000    -3.777000000
H    -4.876000000    -2.837000000    -3.207000000
H    -3.489000000    -2.717000000    -3.799000000
O    -1.856000000    -0.033000000    -7.384000000
H    -2.766000000     0.242000000    -7.490000000
H    -1.662000000     0.131000000    -6.461000000
O    -5.654000000    -1.589000000    -2.105000000
H    -4.859000000    -1.137000000    -1.823000000
H    -6.360000000    -1.149000000    -1.633000000
O    -4.485000000    -0.722000000    -5.195000000
H    -4.566000000    -1.655000000    -4.999000000
H    -3.572000000    -0.514000000    -4.997000000
O    -7.295000000     0.298000000    -0.882000000
H    -7.712000000     1.064000000    -1.276000000
H    -7.614000000     0.289000000     0.020000000
O    -3.531000000    -4.536000000    -7.881000000
H    -3.231000000    -3.813000000    -7.329000000
H    -3.543000000    -4.171000000    -8.766000000
O    -2.772000000     2.635000000    -5.109000000
H    -2.514000000     1.723000000    -4.972000000
H    -3.684000000     2.671000000    -4.819000000
