215
-1443.32197
C     3.102000000    -1.368000000    -2.382000000
H     2.352000000    -2.144000000    -2.255000000
C     3.840000000    -0.963000000    -1.284000000
C     4.743000000     0.138000000    -1.471000000
H     5.312000000     0.535000000    -0.635000000
C     3.564000000    -1.648000000     0.100000000
O     3.587000000    -3.094000000    -0.040000000
H     2.580000000    -1.343000000     0.486000000
O     4.535000000    -1.171000000     1.021000000
C     4.103000000    -0.763000000     2.165000000
C     3.974000000     0.608000000     2.261000000
H     4.355000000     1.253000000     1.473000000
C     3.305000000     1.175000000     3.293000000
O     3.086000000     2.509000000     3.247000000
C     2.612000000     0.391000000     4.219000000
C     1.819000000     1.064000000     5.316000000
H     1.738000000     0.368000000     6.154000000
C     0.391000000     1.382000000     4.813000000
C    -0.517000000     0.350000000     4.983000000
H    -0.250000000    -0.576000000     5.486000000
H     2.375000000     1.956000000     5.610000000
C     2.799000000    -1.053000000     4.188000000
H     2.309000000    -1.760000000     4.853000000
C     3.529000000    -1.625000000     3.148000000
C     3.586000000    -3.105000000     2.869000000
H     3.564000000    -3.563000000     3.860000000
H     4.522000000    -3.463000000     2.434000000
C     2.429000000    -3.643000000     2.023000000
C     1.313000000    -4.110000000     2.655000000
H     1.275000000    -4.007000000     3.737000000
C     2.496000000    -3.717000000     0.656000000
C     1.539000000    -4.352000000    -0.104000000
H     1.627000000    -4.363000000    -1.187000000
C     0.432000000    -4.882000000     0.582000000
O    -0.662000000    -5.249000000    -0.197000000
C    -1.678000000    -4.268000000    -0.532000000
C    -2.060000000    -4.260000000    -1.990000000
C    -3.435000000    -4.007000000    -2.317000000
H    -4.088000000    -3.723000000    -1.495000000
C    -1.214000000    -4.641000000    -3.029000000
H    -0.199000000    -4.933000000    -2.774000000
O    -2.887000000    -4.371000000     0.324000000
H    -1.224000000    -3.304000000    -0.259000000
C     0.251000000    -4.718000000     1.965000000
C    -1.092000000    -5.011000000     2.640000000
H    -0.923000000    -5.289000000     3.683000000
H    -1.623000000    -5.891000000     2.270000000
C    -1.979000000    -3.739000000     2.512000000
C    -2.010000000    -2.886000000     3.580000000
H    -1.394000000    -3.186000000     4.424000000
C    -2.874000000    -3.554000000     1.414000000
C    -3.654000000    -2.442000000     1.453000000
H    -4.363000000    -2.253000000     0.651000000
C    -3.581000000    -1.482000000     2.439000000
O    -4.229000000    -0.277000000     2.225000000
C    -3.403000000     0.912000000     1.922000000
C    -4.155000000     1.602000000     0.750000000
C    -4.653000000     0.839000000    -0.334000000
H    -4.497000000    -0.236000000    -0.358000000
C    -4.123000000     3.013000000     0.651000000
H    -3.602000000     3.533000000     1.451000000
O    -3.354000000     1.695000000     3.066000000
H    -2.446000000     0.511000000     1.558000000
C    -2.772000000    -1.707000000     3.582000000
C    -2.812000000    -0.625000000     4.755000000
H    -2.463000000    -1.151000000     5.645000000
H    -3.803000000    -0.191000000     4.904000000
C    -1.793000000     0.462000000     4.407000000
C    -2.154000000     1.651000000     3.756000000
C    -1.244000000     2.679000000     3.638000000
H    -1.509000000     3.595000000     3.115000000
C     0.018000000     2.563000000     4.119000000
O     0.919000000     3.475000000     3.680000000
C     1.802000000     2.947000000     2.686000000
H     1.252000000     2.168000000     2.138000000
C     2.033000000     3.921000000     1.522000000
C     3.294000000     4.448000000     1.354000000
H     4.167000000     4.330000000     1.990000000
C     1.005000000     4.366000000     0.726000000
H    -0.037000000     4.131000000     0.927000000
C     1.231000000     5.310000000    -0.302000000
O     0.148000000     5.716000000    -1.113000000
C     2.528000000     5.675000000    -0.638000000
H     2.833000000     6.335000000    -1.446000000
C     3.553000000     5.295000000     0.198000000
O     4.835000000     5.474000000    -0.136000000
C     5.662000000     4.514000000    -0.653000000
C     5.282000000     3.537000000    -1.557000000
H     4.256000000     3.427000000    -1.898000000
C     6.997000000     4.561000000    -0.242000000
H     7.440000000     5.270000000     0.452000000
C     7.936000000     3.754000000    -0.909000000
H     9.012000000     3.785000000    -0.764000000
C     7.530000000     2.774000000    -1.855000000
H     8.185000000     2.028000000    -2.299000000
C     6.156000000     2.657000000    -2.124000000
O     5.693000000     1.854000000    -3.058000000
C     4.882000000     0.684000000    -2.802000000
C     4.089000000     0.246000000    -3.856000000
H     4.211000000     0.780000000    -4.795000000
C     3.181000000    -0.784000000    -3.596000000
O     2.117000000    -0.901000000    -4.418000000
C     1.927000000    -2.166000000    -4.905000000
C     0.722000000    -2.779000000    -4.803000000
H    -0.117000000    -2.306000000    -4.300000000
C     3.008000000    -2.839000000    -5.472000000
H     3.942000000    -2.286000000    -5.530000000
C     2.891000000    -4.094000000    -5.981000000
H     3.661000000    -4.617000000    -6.543000000
C     1.650000000    -4.657000000    -6.008000000
H     1.438000000    -5.527000000    -6.624000000
C     0.601000000    -4.041000000    -5.361000000
O    -0.682000000    -4.575000000    -5.362000000
C    -1.603000000    -4.483000000    -4.343000000
C    -2.949000000    -4.190000000    -4.624000000
H    -3.388000000    -3.958000000    -5.591000000
C    -3.859000000    -4.046000000    -3.623000000
O    -5.218000000    -3.828000000    -3.935000000
C    -5.917000000    -2.880000000    -3.212000000
C    -5.580000000    -1.532000000    -3.244000000
H    -4.626000000    -1.179000000    -3.627000000
C    -7.067000000    -3.238000000    -2.511000000
H    -7.303000000    -4.299000000    -2.509000000
C    -7.745000000    -2.295000000    -1.715000000
H    -8.555000000    -2.618000000    -1.066000000
C    -7.352000000    -0.948000000    -1.713000000
H    -7.948000000    -0.186000000    -1.217000000
C    -6.231000000    -0.567000000    -2.487000000
O    -5.948000000     0.788000000    -2.420000000
C    -5.313000000     1.481000000    -1.378000000
C    -5.342000000     2.914000000    -1.363000000
H    -5.825000000     3.328000000    -2.245000000
C    -4.707000000     3.657000000    -0.439000000
O    -4.577000000     5.027000000    -0.643000000
C    -3.398000000     5.690000000    -0.320000000
C    -3.451000000     6.824000000     0.586000000
H    -4.460000000     7.132000000     0.847000000
C    -2.266000000     7.505000000     0.923000000
H    -2.458000000     8.350000000     1.579000000
C    -1.043000000     7.141000000     0.443000000
H    -0.168000000     7.763000000     0.615000000
C    -1.012000000     6.151000000    -0.543000000
C    -2.153000000     5.332000000    -0.861000000
H    -2.137000000     4.555000000    -1.622000000
C    -1.175000000     0.858000000    -2.276000000
H    -2.061000000     0.474000000    -2.777000000
C    -0.985000000     0.496000000    -0.952000000
H    -1.745000000    -0.118000000    -0.477000000
C     0.175000000     0.849000000    -0.301000000
H     0.335000000     0.523000000     0.723000000
C     1.086000000     1.679000000    -0.973000000
H     1.986000000     2.073000000    -0.508000000
C     0.942000000     2.007000000    -2.263000000
H     1.735000000     2.625000000    -2.676000000
C    -0.228000000     1.614000000    -2.995000000
C    -0.431000000     2.107000000    -4.448000000
O     0.224000000     3.056000000    -4.845000000
O    -1.224000000     1.584000000    -5.193000000
O    -0.001000000     6.275000000    -7.104000000
H    -0.420000000     7.043000000    -6.717000000
H    -0.572000000     5.544000000    -6.866000000
O    -1.061000000     1.474000000   -10.359000000
H    -0.155000000     1.228000000   -10.545000000
H    -1.030000000     1.859000000    -9.483000000
O    -2.000000000     7.267000000    -5.121000000
H    -2.777000000     7.548000000    -5.604000000
H    -2.147000000     6.336000000    -4.953000000
O    -2.102000000     4.685000000    -5.425000000
H    -1.478000000     4.052000000    -5.071000000
H    -2.512000000     4.231000000    -6.161000000
O    -6.148000000     1.308000000    -5.339000000
H    -5.376000000     0.849000000    -5.669000000
H    -6.090000000     1.219000000    -4.387000000
O     4.160000000     6.314000000    -4.201000000
H     3.675000000     6.471000000    -3.392000000
H     4.211000000     5.360000000    -4.269000000
O     0.244000000     8.411000000    -4.357000000
H    -0.642000000     8.142000000    -4.600000000
H     0.689000000     7.595000000    -4.129000000
O    -1.743000000    -1.515000000    -9.284000000
H    -0.893000000    -1.886000000    -9.050000000
H    -1.532000000    -0.735000000    -9.797000000
O    -4.869000000     5.746000000    -3.591000000
H    -5.443000000     4.984000000    -3.661000000
H    -4.066000000     5.484000000    -4.043000000
O    -3.602000000     0.440000000    -5.515000000
H    -3.243000000    -0.300000000    -6.005000000
H    -2.862000000     1.037000000    -5.406000000
O     2.389000000     2.143000000    -6.402000000
H     2.189000000     1.263000000    -6.722000000
H     1.581000000     2.433000000    -5.978000000
O    -0.752000000     2.993000000    -7.877000000
H    -0.519000000     2.618000000    -7.027000000
H    -0.006000000     3.546000000    -8.107000000
O     1.999000000     5.318000000    -8.732000000
H     2.213000000     6.169000000    -9.114000000
H     1.512000000     5.527000000    -7.936000000
O     0.775000000     0.052000000    -6.622000000
H     1.312000000    -0.283000000    -5.904000000
H     0.073000000     0.538000000    -6.189000000
O     1.109000000    -1.484000000    -8.956000000
H     1.519000000    -0.760000000    -9.429000000
H     1.002000000    -1.158000000    -8.063000000
O     1.120000000     5.139000000    -3.498000000
H     0.659000000     4.878000000    -2.701000000
H     0.862000000     4.486000000    -4.149000000
O     4.538000000     3.506000000    -7.167000000
H     4.011000000     3.968000000    -7.819000000
H     3.916000000     2.938000000    -6.713000000
O    -3.191000000     3.957000000    -7.991000000
H    -3.846000000     3.259000000    -8.000000000
H    -2.373000000     3.520000000    -8.229000000
O    -5.605000000     2.556000000    -7.708000000
H    -5.710000000     1.992000000    -8.474000000
H    -5.855000000     2.003000000    -6.967000000
