215
-1464.97936
C    -3.840000000    -1.150000000     2.472000000
H    -3.770000000    -0.145000000     2.880000000
C    -2.920000000    -2.138000000     2.653000000
C    -3.143000000    -3.394000000     2.010000000
H    -2.346000000    -4.133000000     2.025000000
C    -1.559000000    -1.758000000     3.196000000
O    -1.601000000    -1.003000000     4.427000000
H    -1.030000000    -1.131000000     2.464000000
O    -0.824000000    -2.917000000     3.420000000
C     0.508000000    -3.097000000     3.117000000
C     0.858000000    -3.856000000     1.971000000
H     0.079000000    -4.451000000     1.502000000
C     2.157000000    -3.848000000     1.454000000
O     2.293000000    -4.512000000     0.225000000
C     3.172000000    -3.196000000     2.174000000
C     4.523000000    -3.085000000     1.551000000
H     5.258000000    -2.791000000     2.303000000
C     4.601000000    -1.972000000     0.453000000
C     4.966000000    -0.680000000     0.769000000
H     5.584000000    -0.468000000     1.638000000
H     4.815000000    -4.022000000     1.073000000
C     2.876000000    -2.659000000     3.447000000
H     3.658000000    -2.204000000     4.049000000
C     1.534000000    -2.463000000     3.809000000
C     1.235000000    -1.648000000     5.048000000
H     2.125000000    -1.542000000     5.672000000
H     0.464000000    -2.229000000     5.559000000
C     0.652000000    -0.231000000     4.743000000
C     1.609000000     0.837000000     4.627000000
H     2.667000000     0.665000000     4.806000000
C    -0.722000000     0.065000000     4.488000000
C    -1.139000000     1.357000000     4.217000000
H    -2.205000000     1.521000000     4.084000000
C    -0.154000000     2.301000000     3.988000000
O    -0.587000000     3.551000000     3.503000000
C    -0.562000000     3.760000000     2.141000000
C    -1.849000000     4.384000000     1.611000000
C    -1.770000000     5.217000000     0.449000000
H    -0.911000000     5.597000000    -0.098000000
C    -3.053000000     3.888000000     2.043000000
H    -3.158000000     3.309000000     2.957000000
O     0.627000000     4.629000000     1.912000000
H    -0.477000000     2.781000000     1.647000000
C     1.193000000     2.082000000     4.201000000
C     2.230000000     3.237000000     4.064000000
H     3.030000000     3.157000000     4.803000000
H     1.806000000     4.198000000     4.361000000
C     2.684000000     3.373000000     2.589000000
C     3.798000000     2.634000000     2.108000000
H     4.413000000     2.117000000     2.841000000
C     1.878000000     4.054000000     1.620000000
C     2.283000000     4.047000000     0.281000000
H     1.727000000     4.607000000    -0.467000000
C     3.362000000     3.376000000    -0.140000000
O     3.565000000     3.316000000    -1.515000000
C     3.046000000     2.083000000    -2.094000000
C     2.312000000     2.329000000    -3.370000000
C     1.507000000     3.456000000    -3.487000000
H     1.558000000     4.172000000    -2.671000000
C     2.263000000     1.271000000    -4.337000000
H     2.877000000     0.378000000    -4.258000000
O     4.158000000     1.149000000    -2.273000000
H     2.374000000     1.646000000    -1.341000000
C     4.076000000     2.584000000     0.728000000
C     5.247000000     1.784000000     0.311000000
H     5.865000000     1.744000000     1.210000000
H     5.888000000     2.346000000    -0.372000000
C     4.850000000     0.389000000    -0.131000000
C     4.347000000     0.145000000    -1.401000000
C     4.056000000    -1.151000000    -1.763000000
H     3.645000000    -1.409000000    -2.735000000
C     4.138000000    -2.188000000    -0.873000000
O     3.591000000    -3.354000000    -1.334000000
C     2.246000000    -3.661000000    -0.874000000
H     1.716000000    -2.730000000    -0.625000000
C     1.336000000    -4.343000000    -1.936000000
C     0.328000000    -5.213000000    -1.549000000
H     0.259000000    -5.557000000    -0.521000000
C     1.448000000    -4.062000000    -3.310000000
H     2.183000000    -3.331000000    -3.638000000
C     0.499000000    -4.493000000    -4.247000000
O     0.474000000    -4.078000000    -5.573000000
C    -0.419000000    -5.426000000    -3.854000000
H    -1.098000000    -5.760000000    -4.634000000
C    -0.522000000    -5.802000000    -2.510000000
O    -1.364000000    -6.870000000    -2.209000000
C    -2.024000000    -6.978000000    -1.007000000
C    -2.803000000    -5.901000000    -0.683000000
H    -2.929000000    -5.025000000    -1.314000000
C    -1.943000000    -8.038000000    -0.096000000
H    -1.413000000    -8.952000000    -0.349000000
C    -2.781000000    -8.056000000     1.073000000
H    -2.697000000    -8.899000000     1.755000000
C    -3.601000000    -6.985000000     1.358000000
H    -4.205000000    -6.927000000     2.260000000
C    -3.559000000    -5.857000000     0.487000000
O    -4.502000000    -4.843000000     0.616000000
C    -4.280000000    -3.586000000     1.273000000
C    -5.293000000    -2.661000000     1.264000000
H    -6.267000000    -2.865000000     0.828000000
C    -5.040000000    -1.411000000     1.842000000
O    -6.071000000    -0.468000000     1.754000000
C    -6.088000000     0.703000000     2.502000000
C    -5.818000000     1.934000000     1.939000000
H    -5.733000000     2.144000000     0.876000000
C    -6.110000000     0.575000000     3.851000000
H    -6.345000000    -0.397000000     4.277000000
C    -6.027000000     1.658000000     4.644000000
H    -6.241000000     1.487000000     5.696000000
C    -5.828000000     2.940000000     4.086000000
H    -5.605000000     3.805000000     4.705000000
C    -5.675000000     3.043000000     2.730000000
O    -5.466000000     4.255000000     2.106000000
C    -4.218000000     4.482000000     1.581000000
C    -4.167000000     5.457000000     0.611000000
H    -5.108000000     5.954000000     0.386000000
C    -2.982000000     5.706000000    -0.071000000
O    -2.958000000     6.556000000    -1.177000000
C    -1.834000000     6.740000000    -2.008000000
C    -1.590000000     5.636000000    -2.880000000
H    -2.304000000     4.818000000    -2.847000000
C    -1.177000000     7.946000000    -2.141000000
H    -1.445000000     8.803000000    -1.528000000
C    -0.082000000     7.964000000    -3.008000000
H     0.422000000     8.924000000    -3.087000000
C     0.220000000     6.831000000    -3.857000000
H     1.022000000     6.904000000    -4.587000000
C    -0.507000000     5.684000000    -3.776000000
O    -0.292000000     4.608000000    -4.657000000
C     0.592000000     3.532000000    -4.517000000
C     0.508000000     2.473000000    -5.439000000
H    -0.212000000     2.652000000    -6.234000000
C     1.312000000     1.344000000    -5.363000000
O     1.325000000     0.490000000    -6.477000000
C     1.793000000    -0.772000000    -6.525000000
C     3.074000000    -1.121000000    -6.895000000
H     3.778000000    -0.379000000    -7.265000000
C     3.507000000    -2.412000000    -6.726000000
H     4.530000000    -2.658000000    -7.001000000
C     2.645000000    -3.449000000    -6.328000000
H     2.976000000    -4.465000000    -6.130000000
C     1.321000000    -3.071000000    -6.063000000
C     0.867000000    -1.760000000    -6.129000000
H    -0.139000000    -1.438000000    -5.873000000
C    -0.863000000     1.033000000    -1.990000000
H    -1.218000000     1.711000000    -2.762000000
C    -0.166000000     1.487000000    -0.892000000
H     0.148000000     2.515000000    -0.733000000
C     0.208000000     0.577000000     0.140000000
H     0.837000000     0.831000000     0.941000000
C    -0.048000000    -0.768000000     0.021000000
H     0.196000000    -1.481000000     0.803000000
C    -0.615000000    -1.228000000    -1.167000000
H    -0.715000000    -2.303000000    -1.289000000
C    -1.036000000    -0.371000000    -2.177000000
C    -1.962000000    -0.824000000    -3.235000000
O    -2.340000000    -1.951000000    -3.267000000
O    -2.510000000    -0.021000000    -3.962000000
O    -8.119000000    -1.347000000    -3.178000000
H    -7.717000000    -0.764000000    -3.820000000
H    -7.996000000    -0.902000000    -2.339000000
O     1.085000000     0.851000000    -9.421000000
H     0.532000000     0.631000000    -8.671000000
H     1.590000000     1.611000000    -9.132000000
O    -6.464000000    -3.603000000    -2.853000000
H    -5.686000000    -3.244000000    -2.426000000
H    -7.094000000    -2.882000000    -2.849000000
O    -1.142000000    -1.466000000    -8.286000000
H    -1.729000000    -1.004000000    -8.885000000
H    -1.694000000    -1.690000000    -7.537000000
O    -4.424000000     0.350000000    -0.907000000
H    -4.882000000     1.190000000    -0.948000000
H    -3.523000000     0.580000000    -0.682000000
O    -3.162000000     4.866000000    -6.011000000
H    -3.903000000     4.262000000    -5.977000000
H    -2.520000000     4.492000000    -5.407000000
O    -3.863000000    -1.786000000    -9.029000000
H    -4.380000000    -2.582000000    -9.159000000
H    -3.746000000    -1.729000000    -8.081000000
O    -3.318000000    -1.558000000    -6.348000000
H    -4.172000000    -1.131000000    -6.402000000
H    -2.952000000    -1.259000000    -5.516000000
O    -5.414000000     0.247000000    -6.691000000
H    -5.834000000     0.905000000    -7.245000000
H    -5.487000000     0.598000000    -5.804000000
O    -5.992000000    -5.093000000    -5.206000000
H    -6.328000000    -4.802000000    -4.358000000
H    -5.045000000    -4.968000000    -5.144000000
O    -3.756000000    -4.066000000    -3.989000000
H    -4.440000000    -3.493000000    -3.641000000
H    -2.942000000    -3.587000000    -3.835000000
O    -2.796000000     1.100000000    -8.550000000
H    -2.825000000     0.661000000    -7.700000000
H    -3.474000000     1.773000000    -8.495000000
O    -4.312000000    -2.316000000    -1.654000000
H    -3.600000000    -2.250000000    -2.290000000
H    -4.491000000    -1.410000000    -1.400000000
O    -5.100000000     0.197000000    -3.865000000
H    -4.165000000     0.071000000    -4.026000000
H    -5.178000000     0.226000000    -2.912000000
O    -7.689000000     1.703000000    -3.927000000
H    -7.084000000     2.235000000    -4.445000000
H    -8.450000000     2.267000000    -3.794000000
O    -6.245000000     2.388000000    -1.631000000
H    -6.341000000     3.315000000    -1.846000000
H    -6.582000000     1.928000000    -2.400000000
O    -2.642000000    -4.254000000    -7.024000000
H    -2.704000000    -3.938000000    -6.123000000
H    -2.067000000    -3.624000000    -7.460000000
O    -3.425000000     2.666000000    -4.259000000
H    -2.927000000     1.862000000    -4.405000000
H    -4.112000000     2.413000000    -3.643000000
O    -4.437000000    -6.929000000    -3.150000000
H    -3.843000000    -6.236000000    -3.437000000
H    -4.952000000    -6.528000000    -2.450000000
