215
-1435.12479
C    -4.290000000    -0.621000000     3.082000000
H    -3.956000000    -0.011000000     3.917000000
C    -3.414000000    -1.606000000     2.661000000
C    -3.807000000    -2.324000000     1.533000000
H    -3.234000000    -3.187000000     1.206000000
C    -1.985000000    -1.819000000     3.280000000
O    -1.817000000    -1.199000000     4.561000000
H    -1.306000000    -1.319000000     2.573000000
O    -1.539000000    -3.235000000     3.326000000
C    -0.264000000    -3.578000000     2.902000000
C    -0.120000000    -4.291000000     1.693000000
H    -0.998000000    -4.489000000     1.084000000
C     1.129000000    -4.462000000     1.085000000
O     1.257000000    -5.059000000    -0.172000000
C     2.305000000    -4.075000000     1.791000000
C     3.679000000    -4.179000000     1.178000000
H     4.452000000    -4.246000000     1.946000000
C     4.048000000    -3.009000000     0.270000000
C     4.776000000    -1.920000000     0.722000000
H     5.026000000    -1.904000000     1.779000000
H     3.705000000    -5.109000000     0.606000000
C     2.154000000    -3.415000000     2.957000000
H     3.096000000    -3.204000000     3.456000000
C     0.882000000    -3.085000000     3.542000000
C     0.824000000    -2.353000000     4.932000000
H     1.832000000    -2.398000000     5.350000000
H     0.189000000    -2.877000000     5.650000000
C     0.543000000    -0.865000000     4.815000000
C     1.574000000     0.023000000     4.753000000
H     2.557000000    -0.335000000     5.049000000
C    -0.771000000    -0.397000000     4.707000000
C    -0.936000000     0.985000000     4.470000000
H    -1.908000000     1.362000000     4.165000000
C     0.162000000     1.841000000     4.398000000
O    -0.064000000     3.111000000     4.016000000
C     0.123000000     3.281000000     2.591000000
C    -1.029000000     4.064000000     2.023000000
C    -0.986000000     4.439000000     0.641000000
H    -0.043000000     4.387000000     0.101000000
C    -2.181000000     4.314000000     2.739000000
H    -2.281000000     3.851000000     3.717000000
O     1.331000000     3.996000000     2.286000000
H     0.262000000     2.314000000     2.084000000
C     1.427000000     1.382000000     4.621000000
C     2.659000000     2.222000000     4.492000000
H     3.507000000     1.866000000     5.081000000
H     2.466000000     3.237000000     4.847000000
C     3.063000000     2.332000000     2.993000000
C     4.047000000     1.420000000     2.520000000
H     4.567000000     0.710000000     3.159000000
C     2.487000000     3.249000000     2.071000000
C     3.043000000     3.282000000     0.801000000
H     2.592000000     4.036000000     0.161000000
C     3.974000000     2.380000000     0.360000000
O     4.361000000     2.403000000    -0.953000000
C     3.690000000     1.402000000    -1.780000000
C     3.035000000     1.921000000    -3.088000000
C     2.489000000     3.194000000    -3.161000000
H     2.547000000     3.835000000    -2.285000000
C     3.040000000     1.109000000    -4.213000000
H     3.409000000     0.088000000    -4.267000000
O     4.697000000     0.437000000    -2.117000000
H     2.958000000     0.879000000    -1.148000000
C     4.472000000     1.413000000     1.187000000
C     5.610000000     0.493000000     0.610000000
H     6.243000000     0.239000000     1.462000000
H     6.249000000     0.955000000    -0.145000000
C     4.987000000    -0.757000000     0.005000000
C     4.603000000    -0.720000000    -1.360000000
C     3.850000000    -1.827000000    -1.844000000
H     3.492000000    -1.843000000    -2.870000000
C     3.655000000    -2.957000000    -1.056000000
O     2.875000000    -3.992000000    -1.604000000
C     1.417000000    -4.140000000    -1.199000000
H     1.043000000    -3.196000000    -0.774000000
C     0.571000000    -4.341000000    -2.440000000
C    -0.735000000    -4.854000000    -2.323000000
H    -1.065000000    -5.106000000    -1.319000000
C     1.048000000    -3.891000000    -3.756000000
H     2.029000000    -3.431000000    -3.846000000
C     0.101000000    -3.937000000    -4.809000000
O     0.430000000    -3.490000000    -6.050000000
C    -1.205000000    -4.410000000    -4.703000000
H    -1.923000000    -4.442000000    -5.518000000
C    -1.650000000    -4.826000000    -3.467000000
O    -2.980000000    -5.313000000    -3.484000000
C    -3.902000000    -5.227000000    -2.501000000
C    -4.195000000    -3.958000000    -2.043000000
H    -3.739000000    -3.059000000    -2.448000000
C    -4.459000000    -6.353000000    -1.845000000
H    -4.120000000    -7.336000000    -2.160000000
C    -5.412000000    -6.150000000    -0.858000000
H    -5.966000000    -6.993000000    -0.453000000
C    -5.697000000    -4.905000000    -0.366000000
H    -6.343000000    -4.711000000     0.487000000
C    -4.944000000    -3.829000000    -0.903000000
O    -5.231000000    -2.523000000    -0.435000000
C    -4.951000000    -1.953000000     0.819000000
C    -5.790000000    -0.993000000     1.314000000
H    -6.626000000    -0.725000000     0.673000000
C    -5.489000000    -0.342000000     2.485000000
O    -6.382000000     0.566000000     2.974000000
C    -6.032000000     1.726000000     3.521000000
C    -5.471000000     2.750000000     2.792000000
H    -5.207000000     2.617000000     1.746000000
C    -6.220000000     1.809000000     4.908000000
H    -6.645000000     0.955000000     5.430000000
C    -5.935000000     2.993000000     5.559000000
H    -6.135000000     3.124000000     6.620000000
C    -5.357000000     3.995000000     4.849000000
H    -5.226000000     4.968000000     5.315000000
C    -5.173000000     3.931000000     3.469000000
O    -4.499000000     4.945000000     2.833000000
C    -3.360000000     4.780000000     2.097000000
C    -3.310000000     5.242000000     0.793000000
H    -4.104000000     5.837000000     0.349000000
C    -2.131000000     4.995000000     0.059000000
O    -2.019000000     5.586000000    -1.201000000
C    -0.807000000     6.053000000    -1.718000000
C    -0.231000000     5.334000000    -2.706000000
H    -0.686000000     4.416000000    -3.067000000
C    -0.182000000     7.208000000    -1.129000000
H    -0.593000000     7.704000000    -0.254000000
C     1.063000000     7.529000000    -1.648000000
H     1.542000000     8.429000000    -1.271000000
C     1.625000000     6.903000000    -2.723000000
H     2.575000000     7.205000000    -3.157000000
C     0.975000000     5.771000000    -3.219000000
O     1.598000000     5.061000000    -4.251000000
C     1.987000000     3.704000000    -4.302000000
C     1.931000000     2.935000000    -5.450000000
H     1.445000000     3.352000000    -6.329000000
C     2.440000000     1.610000000    -5.409000000
O     2.224000000     0.884000000    -6.577000000
C     2.381000000    -0.515000000    -6.655000000
C     3.559000000    -1.121000000    -7.122000000
H     4.398000000    -0.542000000    -7.499000000
C     3.609000000    -2.550000000    -7.277000000
H     4.497000000    -2.997000000    -7.717000000
C     2.568000000    -3.300000000    -6.941000000
H     2.647000000    -4.381000000    -7.023000000
C     1.456000000    -2.669000000    -6.360000000
C     1.379000000    -1.310000000    -6.342000000
H     0.481000000    -0.858000000    -5.928000000
C    -0.402000000     1.299000000    -2.508000000
H    -0.237000000     2.229000000    -3.045000000
C     0.016000000     1.236000000    -1.236000000
H     0.456000000     2.085000000    -0.720000000
C    -0.316000000     0.150000000    -0.448000000
H     0.006000000     0.099000000     0.598000000
C    -0.976000000    -0.960000000    -0.984000000
H    -1.063000000    -1.870000000    -0.396000000
C    -1.242000000    -0.929000000    -2.346000000
H    -1.654000000    -1.841000000    -2.771000000
C    -1.050000000     0.182000000    -3.176000000
C    -1.400000000     0.267000000    -4.632000000
O    -2.132000000    -0.603000000    -5.129000000
O    -0.999000000     1.151000000    -5.281000000
O    -5.809000000     1.944000000    -5.160000000
H    -6.539000000     1.900000000    -5.779000000
H    -5.399000000     1.081000000    -5.212000000
O    -5.912000000    -1.975000000    -8.720000000
H    -5.569000000    -1.859000000    -9.606000000
H    -5.569000000    -1.227000000    -8.231000000
O    -2.046000000     2.264000000    -9.511000000
H    -1.612000000     1.566000000    -9.020000000
H    -2.837000000     2.455000000    -9.006000000
O    -1.196000000     3.616000000    -6.184000000
H    -1.275000000     3.364000000    -7.104000000
H    -0.995000000     2.799000000    -5.728000000
O    -3.062000000     1.797000000    -1.534000000
H    -2.182000000     1.667000000    -1.888000000
H    -3.462000000     0.928000000    -1.561000000
O    -5.842000000     1.062000000    -8.657000000
H    -6.607000000     1.290000000    -8.129000000
H    -5.138000000     0.943000000    -8.019000000
O    -3.835000000     3.535000000    -7.535000000
H    -4.604000000     4.096000000    -7.435000000
H    -3.106000000     4.068000000    -7.216000000
O    -7.735000000    -1.751000000    -5.638000000
H    -6.800000000    -1.701000000    -5.436000000
H    -8.088000000    -0.912000000    -5.342000000
O    -5.684000000    -0.598000000    -2.641000000
H    -5.318000000    -0.560000000    -3.524000000
H    -5.219000000    -1.320000000    -2.220000000
O    -1.669000000    -2.022000000    -7.576000000
H    -2.540000000    -1.761000000    -7.277000000
H    -1.186000000    -2.210000000    -6.771000000
O    -3.823000000     0.693000000    -6.812000000
H    -3.139000000     0.303000000    -6.267000000
H    -3.716000000     1.637000000    -6.692000000
O    -3.743000000     6.754000000    -4.312000000
H    -4.400000000     6.197000000    -3.894000000
H    -3.073000000     6.144000000    -4.620000000
O    -4.035000000     3.868000000    -3.076000000
H    -4.265000000     3.292000000    -3.805000000
H    -3.667000000     3.282000000    -2.415000000
O     2.690000000     2.700000000    -8.968000000
H     1.985000000     2.284000000    -8.472000000
H     2.429000000     3.619000000    -9.029000000
O    -0.657000000     6.619000000    -5.743000000
H    -0.378000000     6.724000000    -6.653000000
H    -0.528000000     5.689000000    -5.559000000
O    -4.384000000    -3.921000000    -6.745000000
H    -4.868000000    -3.513000000    -7.463000000
H    -4.115000000    -4.772000000    -7.091000000
O    -1.522000000    -2.523000000   -10.514000000
H    -1.036000000    -2.613000000    -9.694000000
H    -2.381000000    -2.195000000   -10.248000000
O    -0.641000000     0.827000000    -7.934000000
H    -0.571000000    -0.095000000    -8.179000000
H    -0.584000000     0.826000000    -6.978000000
O    -4.632000000    -1.817000000    -4.922000000
H    -4.574000000    -2.632000000    -5.421000000
H    -3.728000000    -1.507000000    -4.864000000
