215
-1467.33846
C    -4.279000000    -1.812000000     2.661000000
H    -4.326000000    -1.099000000     3.480000000
C    -3.101000000    -2.500000000     2.452000000
C    -3.005000000    -3.410000000     1.468000000
H    -2.033000000    -3.879000000     1.344000000
C    -1.832000000    -2.172000000     3.203000000
O    -2.165000000    -1.488000000     4.422000000
H    -1.192000000    -1.527000000     2.583000000
O    -0.982000000    -3.343000000     3.402000000
C     0.344000000    -3.142000000     3.257000000
C     0.963000000    -3.887000000     2.238000000
H     0.421000000    -4.621000000     1.646000000
C     2.265000000    -3.714000000     1.920000000
O     2.729000000    -4.360000000     0.770000000
C     3.080000000    -2.845000000     2.655000000
C     4.536000000    -2.683000000     2.271000000
H     5.078000000    -2.402000000     3.176000000
C     4.703000000    -1.574000000     1.233000000
C     4.831000000    -0.233000000     1.728000000
H     4.740000000    -0.064000000     2.798000000
H     4.972000000    -3.635000000     1.965000000
C     2.505000000    -2.093000000     3.648000000
H     2.994000000    -1.263000000     4.152000000
C     1.170000000    -2.309000000     4.090000000
C     0.599000000    -1.632000000     5.311000000
H     1.372000000    -1.519000000     6.075000000
H    -0.081000000    -2.392000000     5.701000000
C    -0.064000000    -0.306000000     4.994000000
C     0.726000000     0.852000000     5.062000000
H     1.739000000     0.840000000     5.455000000
C    -1.364000000    -0.274000000     4.557000000
C    -1.853000000     0.907000000     4.083000000
H    -2.862000000     0.940000000     3.679000000
C    -1.102000000     2.069000000     4.053000000
O    -1.639000000     3.076000000     3.316000000
C    -1.156000000     3.286000000     1.989000000
C    -2.379000000     3.634000000     1.091000000
C    -2.134000000     4.345000000    -0.134000000
H    -1.095000000     4.457000000    -0.435000000
C    -3.709000000     3.279000000     1.452000000
H    -3.804000000     2.784000000     2.415000000
O    -0.215000000     4.362000000     2.014000000
H    -0.654000000     2.415000000     1.543000000
C     0.199000000     2.053000000     4.537000000
C     1.056000000     3.351000000     4.452000000
H     1.861000000     3.417000000     5.186000000
H     0.367000000     4.186000000     4.600000000
C     1.686000000     3.397000000     3.085000000
C     3.010000000     2.843000000     2.940000000
H     3.606000000     2.406000000     3.738000000
C     1.108000000     4.020000000     1.989000000
C     1.712000000     4.078000000     0.759000000
H     1.160000000     4.506000000    -0.074000000
C     2.944000000     3.543000000     0.538000000
O     3.383000000     3.451000000    -0.744000000
C     3.211000000     2.234000000    -1.510000000
C     2.620000000     2.520000000    -2.953000000
C     2.166000000     3.787000000    -3.260000000
H     2.311000000     4.661000000    -2.631000000
C     2.280000000     1.374000000    -3.713000000
H     2.548000000     0.361000000    -3.424000000
O     4.532000000     1.604000000    -1.464000000
H     2.504000000     1.538000000    -1.035000000
C     3.653000000     2.911000000     1.646000000
C     4.993000000     2.269000000     1.358000000
H     5.667000000     2.244000000     2.217000000
H     5.500000000     2.829000000     0.569000000
C     4.785000000     0.826000000     0.834000000
C     4.784000000     0.569000000    -0.561000000
C     4.698000000    -0.776000000    -1.077000000
H     4.710000000    -0.985000000    -2.144000000
C     4.625000000    -1.849000000    -0.144000000
O     4.279000000    -3.122000000    -0.552000000
C     2.926000000    -3.588000000    -0.460000000
H     2.279000000    -2.737000000    -0.200000000
C     2.392000000    -4.237000000    -1.714000000
C     1.293000000    -5.104000000    -1.647000000
H     0.849000000    -5.354000000    -0.687000000
C     2.813000000    -3.787000000    -2.966000000
H     3.572000000    -3.009000000    -2.984000000
C     2.320000000    -4.423000000    -4.078000000
O     2.713000000    -4.070000000    -5.334000000
C     1.337000000    -5.415000000    -4.063000000
H     0.929000000    -5.734000000    -5.019000000
C     0.809000000    -5.743000000    -2.817000000
O    -0.290000000    -6.546000000    -2.845000000
C    -1.109000000    -6.578000000    -1.724000000
C    -2.070000000    -5.592000000    -1.589000000
H    -2.130000000    -4.870000000    -2.400000000
C    -1.028000000    -7.540000000    -0.775000000
H    -0.332000000    -8.363000000    -0.914000000
C    -1.825000000    -7.429000000     0.394000000
H    -1.728000000    -8.132000000     1.217000000
C    -2.883000000    -6.512000000     0.481000000
H    -3.460000000    -6.504000000     1.403000000
C    -2.969000000    -5.598000000    -0.518000000
O    -3.906000000    -4.570000000    -0.472000000
C    -4.066000000    -3.694000000     0.587000000
C    -5.216000000    -2.933000000     0.694000000
H    -6.049000000    -3.147000000     0.029000000
C    -5.328000000    -1.999000000     1.760000000
O    -6.499000000    -1.351000000     1.910000000
C    -6.564000000    -0.057000000     2.432000000
C    -6.119000000     0.882000000     1.539000000
H    -5.695000000     0.643000000     0.567000000
C    -7.095000000     0.239000000     3.698000000
H    -7.354000000    -0.575000000     4.370000000
C    -7.254000000     1.584000000     4.074000000
H    -7.840000000     1.800000000     4.964000000
C    -6.969000000     2.584000000     3.121000000
H    -7.030000000     3.628000000     3.415000000
C    -6.428000000     2.230000000     1.875000000
O    -6.076000000     3.269000000     0.982000000
C    -4.780000000     3.579000000     0.617000000
C    -4.504000000     4.254000000    -0.590000000
H    -5.305000000     4.523000000    -1.275000000
C    -3.231000000     4.677000000    -0.922000000
O    -3.047000000     5.309000000    -2.183000000
C    -1.913000000     5.932000000    -2.689000000
C    -0.951000000     5.209000000    -3.437000000
H    -1.056000000     4.146000000    -3.638000000
C    -1.842000000     7.275000000    -2.605000000
H    -2.671000000     7.749000000    -2.086000000
C    -0.821000000     7.903000000    -3.239000000
H    -0.946000000     8.982000000    -3.286000000
C     0.200000000     7.233000000    -3.895000000
H     1.020000000     7.733000000    -4.404000000
C     0.158000000     5.840000000    -4.082000000
O     1.009000000     5.134000000    -4.872000000
C     1.461000000     3.943000000    -4.445000000
C     1.135000000     2.788000000    -5.210000000
H     0.641000000     3.093000000    -6.129000000
C     1.524000000     1.545000000    -4.812000000
O     1.026000000     0.426000000    -5.463000000
C     1.915000000    -0.545000000    -5.882000000
C     2.836000000    -0.200000000    -6.861000000
H     2.819000000     0.826000000    -7.221000000
C     3.729000000    -1.135000000    -7.378000000
H     4.377000000    -0.857000000    -8.206000000
C     3.644000000    -2.438000000    -6.880000000
H     4.211000000    -3.246000000    -7.335000000
C     2.846000000    -2.758000000    -5.811000000
C     1.892000000    -1.831000000    -5.345000000
H     1.065000000    -2.041000000    -4.673000000
C    -1.086000000     0.818000000    -2.334000000
H    -1.514000000     1.662000000    -2.867000000
C    -0.186000000     1.183000000    -1.332000000
H     0.114000000     2.223000000    -1.225000000
C     0.398000000     0.188000000    -0.518000000
H     0.985000000     0.516000000     0.283000000
C     0.076000000    -1.147000000    -0.613000000
H     0.484000000    -1.948000000    -0.002000000
C    -0.988000000    -1.463000000    -1.536000000
H    -1.361000000    -2.482000000    -1.595000000
C    -1.475000000    -0.475000000    -2.483000000
C    -2.530000000    -0.723000000    -3.478000000
O    -2.542000000    -1.829000000    -4.024000000
O    -3.266000000     0.150000000    -3.878000000
O    -6.486000000    -4.311000000    -5.311000000
H    -6.511000000    -3.391000000    -5.572000000
H    -5.967000000    -4.318000000    -4.506000000
O    -1.642000000     3.500000000    -7.166000000
H    -1.613000000     2.790000000    -7.808000000
H    -1.868000000     3.069000000    -6.342000000
O    -0.371000000    -0.853000000    -9.401000000
H    -0.317000000    -1.334000000    -8.575000000
H    -1.016000000    -0.166000000    -9.236000000
O    -5.069000000     1.130000000    -2.357000000
H    -4.483000000     0.821000000    -3.047000000
H    -4.503000000     1.629000000    -1.768000000
O    -8.179000000     0.740000000    -6.884000000
H    -7.276000000     0.504000000    -6.674000000
H    -8.704000000     0.031000000    -6.514000000
O    -6.927000000    -3.234000000    -2.726000000
H    -6.042000000    -3.040000000    -3.035000000
H    -7.224000000    -2.420000000    -2.321000000
O    -2.970000000     2.621000000    -4.809000000
H    -3.005000000     1.669000000    -4.716000000
H    -3.841000000     2.864000000    -5.123000000
O    -1.715000000     0.280000000    -6.309000000
H    -2.019000000    -0.244000000    -5.567000000
H    -0.764000000     0.310000000    -6.206000000
O    -5.823000000    -1.425000000    -7.994000000
H    -6.656000000    -1.556000000    -7.541000000
H    -5.164000000    -1.755000000    -7.383000000
O    -1.118000000    -3.435000000    -7.765000000
H    -0.423000000    -3.603000000    -8.401000000
H    -1.851000000    -3.114000000    -8.291000000
O    -4.329000000    -3.659000000    -3.184000000
H    -3.994000000    -3.906000000    -2.321000000
H    -3.708000000    -3.004000000    -3.503000000
O    -1.822000000     1.346000000    -8.829000000
H    -2.694000000     1.442000000    -9.212000000
H    -1.980000000     0.964000000    -7.966000000
O    -7.136000000    -0.788000000    -1.862000000
H    -7.612000000    -0.109000000    -1.383000000
H    -6.519000000    -0.305000000    -2.411000000
O    -3.897000000    -2.024000000    -6.284000000
H    -3.472000000    -2.081000000    -5.428000000
H    -3.173000000    -1.960000000    -6.907000000
O    -5.213000000     3.619000000    -5.897000000
H    -5.181000000     4.560000000    -6.073000000
H    -6.147000000     3.411000000    -5.880000000
O    -1.874000000    -4.349000000    -5.146000000
H    -1.893000000    -3.516000000    -4.674000000
H    -1.599000000    -4.116000000    -6.033000000
O    -5.714000000     0.566000000    -5.488000000
H    -5.042000000    -0.076000000    -5.717000000
H    -5.288000000     1.142000000    -4.853000000
O    -3.672000000    -6.533000000    -4.895000000
H    -3.015000000    -5.910000000    -4.587000000
H    -4.475000000    -6.017000000    -4.972000000
O    -7.486000000     2.680000000    -2.552000000
H    -7.645000000     2.763000000    -3.492000000
H    -6.660000000     2.201000000    -2.490000000
