215
-1484.47874
C    -4.581000000    -0.948000000     1.959000000
H    -4.621000000     0.117000000     2.175000000
C    -3.477000000    -1.782000000     2.415000000
C    -3.574000000    -3.143000000     2.161000000
H    -2.806000000    -3.875000000     2.397000000
C    -2.298000000    -1.204000000     3.185000000
O    -2.733000000    -0.040000000     3.974000000
H    -1.577000000    -0.808000000     2.455000000
O    -1.566000000    -2.240000000     4.020000000
C    -0.203000000    -2.219000000     4.090000000
C     0.441000000    -3.196000000     3.289000000
H    -0.138000000    -3.940000000     2.748000000
C     1.792000000    -3.150000000     3.093000000
O     2.252000000    -4.108000000     2.182000000
C     2.563000000    -2.184000000     3.693000000
C     4.091000000    -2.151000000     3.407000000
H     4.648000000    -1.697000000     4.229000000
C     4.346000000    -1.338000000     2.146000000
C     4.586000000     0.060000000     2.201000000
H     4.661000000     0.617000000     3.131000000
H     4.500000000    -3.129000000     3.144000000
C     1.938000000    -1.282000000     4.572000000
H     2.631000000    -0.602000000     5.060000000
C     0.549000000    -1.249000000     4.802000000
C    -0.251000000    -0.133000000     5.559000000
H     0.367000000     0.268000000     6.365000000
H    -1.138000000    -0.515000000     6.069000000
C    -0.629000000     0.977000000     4.644000000
C     0.230000000     2.043000000     4.572000000
H     1.168000000     2.051000000     5.121000000
C    -1.876000000     1.037000000     4.010000000
C    -2.297000000     2.124000000     3.330000000
H    -3.272000000     2.105000000     2.851000000
C    -1.418000000     3.218000000     3.157000000
O    -1.817000000     4.180000000     2.230000000
C    -1.268000000     4.087000000     0.936000000
C    -2.273000000     4.218000000    -0.143000000
C    -1.865000000     4.389000000    -1.479000000
H    -0.808000000     4.506000000    -1.703000000
C    -3.661000000     4.124000000     0.132000000
H    -3.895000000     4.134000000     1.194000000
O    -0.211000000     5.044000000     0.831000000
H    -0.928000000     3.045000000     0.837000000
C    -0.187000000     3.201000000     3.778000000
C     0.765000000     4.385000000     3.549000000
H     1.326000000     4.570000000     4.468000000
H     0.175000000     5.280000000     3.338000000
C     1.614000000     4.175000000     2.290000000
C     2.858000000     3.525000000     2.450000000
H     3.135000000     3.201000000     3.450000000
C     1.069000000     4.517000000     1.026000000
C     1.770000000     4.128000000    -0.047000000
H     1.447000000     4.389000000    -1.052000000
C     2.973000000     3.443000000     0.033000000
O     3.587000000     3.100000000    -1.120000000
C     3.426000000     1.775000000    -1.620000000
C     3.173000000     1.671000000    -3.112000000
C     2.743000000     2.760000000    -3.893000000
H     2.758000000     3.771000000    -3.495000000
C     3.134000000     0.368000000    -3.720000000
H     3.320000000    -0.524000000    -3.127000000
O     4.589000000     1.001000000    -1.285000000
H     2.603000000     1.302000000    -1.064000000
C     3.562000000     3.145000000     1.295000000
C     4.818000000     2.389000000     1.324000000
H     5.310000000     2.529000000     2.288000000
H     5.428000000     2.894000000     0.572000000
C     4.678000000     0.875000000     1.092000000
C     4.586000000     0.260000000    -0.134000000
C     4.525000000    -1.144000000    -0.294000000
H     4.363000000    -1.571000000    -1.280000000
C     4.322000000    -1.872000000     0.890000000
O     4.017000000    -3.214000000     0.735000000
C     2.619000000    -3.575000000     0.841000000
H     2.019000000    -2.658000000     0.742000000
C     2.182000000    -4.501000000    -0.251000000
C     0.837000000    -4.972000000    -0.215000000
H     0.158000000    -4.614000000     0.555000000
C     2.947000000    -4.834000000    -1.420000000
H     3.983000000    -4.503000000    -1.408000000
C     2.421000000    -5.470000000    -2.554000000
O     3.042000000    -5.498000000    -3.744000000
C     1.051000000    -5.748000000    -2.599000000
H     0.614000000    -6.278000000    -3.441000000
C     0.319000000    -5.582000000    -1.427000000
O    -0.930000000    -6.098000000    -1.491000000
C    -1.737000000    -6.305000000    -0.425000000
C    -2.787000000    -5.463000000    -0.116000000
H    -2.985000000    -4.572000000    -0.708000000
C    -1.580000000    -7.515000000     0.329000000
H    -0.680000000    -8.101000000     0.164000000
C    -2.397000000    -7.842000000     1.364000000
H    -2.110000000    -8.781000000     1.830000000
C    -3.467000000    -7.006000000     1.679000000
H    -4.162000000    -7.233000000     2.483000000
C    -3.658000000    -5.824000000     0.928000000
O    -4.699000000    -4.987000000     1.176000000
C    -4.589000000    -3.630000000     1.402000000
C    -5.624000000    -2.839000000     1.004000000
H    -6.435000000    -3.270000000     0.424000000
C    -5.584000000    -1.471000000     1.240000000
O    -6.610000000    -0.738000000     0.743000000
C    -6.772000000     0.633000000     1.002000000
C    -6.078000000     1.584000000     0.206000000
H    -5.467000000     1.201000000    -0.607000000
C    -7.657000000     1.022000000     1.950000000
H    -8.278000000     0.297000000     2.469000000
C    -8.107000000     2.353000000     1.993000000
H    -8.805000000     2.715000000     2.744000000
C    -7.463000000     3.348000000     1.244000000
H    -7.756000000     4.394000000     1.281000000
C    -6.450000000     2.902000000     0.337000000
O    -5.869000000     3.811000000    -0.636000000
C    -4.587000000     4.151000000    -0.899000000
C    -4.166000000     4.250000000    -2.231000000
H    -4.846000000     4.190000000    -3.078000000
C    -2.796000000     4.432000000    -2.496000000
O    -2.357000000     4.299000000    -3.800000000
C    -1.179000000     4.888000000    -4.329000000
C    -0.260000000     4.119000000    -4.990000000
H    -0.401000000     3.042000000    -4.973000000
C    -0.891000000     6.251000000    -4.094000000
H    -1.563000000     6.931000000    -3.576000000
C     0.366000000     6.718000000    -4.471000000
H     0.677000000     7.694000000    -4.109000000
C     1.240000000     5.943000000    -5.171000000
H     2.208000000     6.359000000    -5.439000000
C     0.952000000     4.619000000    -5.418000000
O     1.932000000     3.785000000    -5.862000000
C     2.313000000     2.596000000    -5.191000000
C     2.249000000     1.303000000    -5.774000000
H     1.855000000     1.105000000    -6.767000000
C     2.660000000     0.221000000    -5.011000000
O     2.443000000    -1.075000000    -5.509000000
C     3.281000000    -2.091000000    -5.138000000
C     4.647000000    -2.055000000    -5.277000000
H     5.081000000    -1.210000000    -5.806000000
C     5.446000000    -3.136000000    -4.969000000
H     6.520000000    -3.114000000    -5.135000000
C     4.924000000    -4.284000000    -4.430000000
H     5.573000000    -5.100000000    -4.122000000
C     3.528000000    -4.300000000    -4.230000000
C     2.684000000    -3.265000000    -4.602000000
H     1.606000000    -3.363000000    -4.496000000
C     0.135000000    -1.160000000    -1.282000000
H     0.913000000    -1.635000000    -1.873000000
C     0.574000000    -0.446000000    -0.213000000
H     1.621000000    -0.551000000     0.058000000
C    -0.274000000     0.332000000     0.541000000
H     0.132000000     0.997000000     1.315000000
C    -1.659000000     0.250000000     0.241000000
H    -2.413000000     0.736000000     0.854000000
C    -2.099000000    -0.529000000    -0.824000000
H    -3.174000000    -0.584000000    -0.971000000
C    -1.219000000    -1.291000000    -1.607000000
C    -1.731000000    -2.166000000    -2.733000000
O    -2.917000000    -2.091000000    -3.062000000
O    -1.045000000    -2.981000000    -3.339000000
O    -4.962000000    -0.943000000    -5.659000000
H    -4.350000000    -0.476000000    -5.089000000
H    -4.948000000    -0.450000000    -6.480000000
O    -1.461000000    -0.345000000    -7.158000000
H    -0.866000000    -0.677000000    -7.830000000
H    -1.412000000    -0.991000000    -6.453000000
O    -8.201000000    -5.941000000    -3.002000000
H    -7.357000000    -5.533000000    -2.805000000
H    -7.975000000    -6.739000000    -3.480000000
O    -1.925000000    -7.855000000    -4.378000000
H    -1.007000000    -7.816000000    -4.643000000
H    -2.120000000    -6.975000000    -4.056000000
O    -3.613000000    -3.305000000    -5.428000000
H    -3.234000000    -3.499000000    -4.571000000
H    -4.183000000    -2.551000000    -5.273000000
O    -4.809000000    -3.825000000    -2.568000000
H    -4.110000000    -3.173000000    -2.602000000
H    -5.572000000    -3.378000000    -2.935000000
O    -5.443000000    -6.065000000    -5.353000000
H    -5.366000000    -5.111000000    -5.365000000
H    -4.918000000    -6.358000000    -6.097000000
O    -4.657000000     2.385000000    -5.339000000
H    -4.341000000     1.824000000    -4.631000000
H    -4.026000000     2.254000000    -6.047000000
O    -0.736000000    -2.696000000    -6.033000000
H    -0.821000000    -2.763000000    -5.082000000
H    -0.690000000    -3.604000000    -6.334000000
O    -1.262000000    -5.232000000    -7.079000000
H    -1.736000000    -5.474000000    -6.284000000
H    -1.786000000    -5.599000000    -7.791000000
O    -2.636000000     2.290000000    -7.159000000
H    -2.360000000     2.584000000    -8.027000000
H    -2.217000000     1.437000000    -7.050000000
O    -0.623000000     1.065000000    -3.378000000
H    -0.499000000     1.548000000    -2.561000000
H     0.217000000     0.633000000    -3.531000000
O    -3.329000000    -2.917000000    -8.179000000
H    -3.539000000    -3.069000000    -7.258000000
H    -2.376000000    -2.992000000    -8.223000000
O     0.904000000    -1.289000000    -8.286000000
H     1.737000000    -0.865000000    -8.082000000
H     0.817000000    -1.977000000    -7.626000000
O     0.311000000    -7.425000000    -6.720000000
H    -0.346000000    -7.715000000    -7.353000000
H     0.145000000    -6.488000000    -6.613000000
O    -3.345000000     0.433000000    -3.880000000
H    -3.351000000    -0.437000000    -3.481000000
H    -2.437000000     0.565000000    -4.153000000
O    -2.347000000    -5.360000000    -3.806000000
H    -3.104000000    -5.059000000    -3.304000000
H    -1.635000000    -4.781000000    -3.535000000
O    -6.926000000    -2.258000000    -3.755000000
H    -6.338000000    -2.004000000    -4.466000000
H    -7.408000000    -1.457000000    -3.545000000
O    -5.714000000    -6.182000000    -1.566000000
H    -5.314000000    -5.434000000    -2.011000000
H    -5.803000000    -5.900000000    -0.656000000
