215
-1439.66309
C    -4.060000000    -0.466000000     2.217000000
H    -3.798000000     0.585000000     2.308000000
C    -3.385000000    -1.396000000     3.036000000
C    -3.654000000    -2.747000000     2.914000000
H    -3.121000000    -3.489000000     3.501000000
C    -2.176000000    -0.958000000     3.809000000
O    -2.307000000     0.275000000     4.512000000
H    -1.346000000    -0.660000000     3.151000000
O    -1.514000000    -1.947000000     4.562000000
C    -0.188000000    -2.110000000     4.388000000
C     0.183000000    -3.080000000     3.474000000
H    -0.606000000    -3.664000000     3.007000000
C     1.505000000    -3.041000000     2.969000000
O     1.826000000    -3.972000000     1.996000000
C     2.443000000    -2.180000000     3.507000000
C     3.899000000    -2.303000000     3.159000000
H     4.561000000    -1.854000000     3.903000000
C     4.178000000    -1.590000000     1.895000000
C     4.581000000    -0.240000000     1.949000000
H     4.826000000     0.125000000     2.943000000
H     4.356000000    -3.291000000     3.086000000
C     2.031000000    -1.167000000     4.410000000
H     2.734000000    -0.369000000     4.636000000
C     0.699000000    -1.179000000     4.837000000
C     0.324000000     0.039000000     5.660000000
H     1.130000000     0.316000000     6.343000000
H    -0.549000000    -0.218000000     6.264000000
C    -0.146000000     1.255000000     4.861000000
C     0.773000000     2.257000000     4.549000000
H     1.817000000     2.185000000     4.843000000
C    -1.430000000     1.273000000     4.334000000
C    -1.879000000     2.445000000     3.682000000
H    -2.917000000     2.545000000     3.372000000
C    -1.007000000     3.450000000     3.336000000
O    -1.395000000     4.470000000     2.498000000
C    -1.009000000     4.267000000     1.090000000
C    -2.169000000     4.521000000     0.090000000
C    -1.880000000     4.391000000    -1.257000000
H    -0.830000000     4.382000000    -1.540000000
C    -3.505000000     4.529000000     0.485000000
H    -3.806000000     4.408000000     1.523000000
O     0.207000000     4.978000000     0.707000000
H    -0.779000000     3.201000000     0.943000000
C     0.316000000     3.304000000     3.703000000
C     1.372000000     4.373000000     3.288000000
H     2.111000000     4.514000000     4.080000000
H     0.899000000     5.355000000     3.351000000
C     2.033000000     3.992000000     1.993000000
C     3.239000000     3.365000000     1.995000000
H     3.614000000     2.979000000     2.939000000
C     1.437000000     4.302000000     0.765000000
C     2.039000000     3.946000000    -0.423000000
H     1.518000000     4.161000000    -1.353000000
C     3.236000000     3.246000000    -0.407000000
O     3.822000000     2.741000000    -1.564000000
C     3.538000000     1.370000000    -1.935000000
C     3.252000000     1.270000000    -3.426000000
C     2.391000000     2.223000000    -4.010000000
H     2.129000000     3.077000000    -3.389000000
C     3.712000000     0.216000000    -4.197000000
H     4.410000000    -0.465000000    -3.717000000
O     4.717000000     0.577000000    -1.620000000
H     2.615000000     1.026000000    -1.446000000
C     3.857000000     2.908000000     0.841000000
C     5.122000000     2.093000000     0.931000000
H     5.690000000     2.389000000     1.815000000
H     5.661000000     2.452000000     0.052000000
C     4.811000000     0.596000000     0.851000000
C     4.662000000    -0.109000000    -0.409000000
C     4.215000000    -1.386000000    -0.497000000
H     3.988000000    -1.680000000    -1.518000000
C     4.014000000    -2.169000000     0.649000000
O     3.509000000    -3.370000000     0.436000000
C     2.063000000    -3.384000000     0.660000000
H     1.600000000    -2.386000000     0.655000000
C     1.480000000    -4.194000000    -0.406000000
C     0.262000000    -4.922000000    -0.129000000
H    -0.288000000    -4.892000000     0.808000000
C     2.001000000    -4.257000000    -1.739000000
H     2.879000000    -3.677000000    -2.010000000
C     1.467000000    -5.043000000    -2.702000000
O     1.945000000    -5.050000000    -4.023000000
C     0.390000000    -5.847000000    -2.360000000
H    -0.027000000    -6.548000000    -3.079000000
C    -0.247000000    -5.711000000    -1.141000000
O    -1.316000000    -6.530000000    -0.936000000
C    -2.059000000    -6.569000000     0.199000000
C    -2.932000000    -5.504000000     0.486000000
H    -2.841000000    -4.564000000    -0.053000000
C    -2.302000000    -7.740000000     0.841000000
H    -1.975000000    -8.703000000     0.458000000
C    -3.113000000    -7.795000000     1.925000000
H    -3.268000000    -8.699000000     2.509000000
C    -3.872000000    -6.672000000     2.364000000
H    -4.525000000    -6.729000000     3.232000000
C    -3.863000000    -5.616000000     1.560000000
O    -4.784000000    -4.621000000     1.782000000
C    -4.626000000    -3.262000000     2.023000000
C    -5.373000000    -2.318000000     1.295000000
H    -5.977000000    -2.767000000     0.511000000
C    -5.053000000    -0.968000000     1.427000000
O    -5.622000000    -0.071000000     0.564000000
C    -6.166000000     1.164000000     0.817000000
C    -5.742000000     2.333000000     0.206000000
H    -4.806000000     2.282000000    -0.344000000
C    -7.341000000     1.176000000     1.521000000
H    -7.696000000     0.254000000     1.974000000
C    -8.027000000     2.400000000     1.685000000
H    -8.937000000     2.513000000     2.269000000
C    -7.584000000     3.514000000     1.040000000
H    -8.095000000     4.474000000     1.030000000
C    -6.402000000     3.555000000     0.355000000
O    -5.855000000     4.723000000    -0.127000000
C    -4.542000000     4.694000000    -0.427000000
C    -4.200000000     4.775000000    -1.835000000
H    -4.991000000     4.832000000    -2.579000000
C    -2.883000000     4.544000000    -2.284000000
O    -2.637000000     4.415000000    -3.689000000
C    -1.489000000     4.727000000    -4.233000000
C    -0.757000000     3.748000000    -4.972000000
H    -1.208000000     2.765000000    -5.088000000
C    -0.940000000     5.956000000    -4.048000000
H    -1.469000000     6.742000000    -3.515000000
C     0.265000000     6.323000000    -4.653000000
H     0.628000000     7.320000000    -4.416000000
C     1.059000000     5.339000000    -5.295000000
H     2.059000000     5.499000000    -5.691000000
C     0.507000000     4.072000000    -5.501000000
O     1.379000000     3.130000000    -6.049000000
C     2.084000000     2.091000000    -5.384000000
C     2.429000000     1.005000000    -6.096000000
H     2.048000000     0.997000000    -7.114000000
C     3.210000000     0.036000000    -5.520000000
O     3.545000000    -1.050000000    -6.224000000
C     3.754000000    -2.297000000    -5.619000000
C     5.036000000    -2.833000000    -5.482000000
H     5.884000000    -2.266000000    -5.860000000
C     5.241000000    -4.058000000    -4.911000000
H     6.231000000    -4.505000000    -4.867000000
C     4.180000000    -4.796000000    -4.410000000
H     4.435000000    -5.774000000    -4.010000000
C     2.920000000    -4.278000000    -4.489000000
C     2.677000000    -3.063000000    -5.175000000
H     1.674000000    -2.701000000    -5.384000000
C    -0.512000000    -1.482000000    -1.693000000
H    -0.081000000    -2.377000000    -2.134000000
C     0.404000000    -0.560000000    -1.166000000
H     1.471000000    -0.680000000    -1.334000000
C     0.047000000     0.482000000    -0.344000000
H     0.729000000     1.103000000     0.097000000
C    -1.317000000     0.561000000    -0.016000000
H    -1.556000000     1.329000000     0.716000000
C    -2.193000000    -0.335000000    -0.586000000
H    -3.243000000    -0.244000000    -0.317000000
C    -1.870000000    -1.399000000    -1.385000000
C    -2.925000000    -2.287000000    -1.904000000
O    -4.099000000    -2.137000000    -1.606000000
O    -2.618000000    -3.267000000    -2.611000000
O    -5.964000000    -1.811000000    -5.719000000
H    -5.673000000    -1.503000000    -4.861000000
H    -5.930000000    -1.033000000    -6.277000000
O    -2.550000000    -0.839000000    -5.366000000
H    -1.969000000    -1.501000000    -4.990000000
H    -3.135000000    -1.333000000    -5.940000000
O    -8.744000000    -4.878000000    -2.584000000
H    -7.855000000    -5.211000000    -2.466000000
H    -8.905000000    -4.952000000    -3.524000000
O    -5.165000000    -4.430000000    -5.221000000
H    -5.493000000    -4.424000000    -4.322000000
H    -5.484000000    -3.610000000    -5.597000000
O    -5.995000000    -4.028000000    -2.427000000
H    -5.233000000    -3.553000000    -2.095000000
H    -6.713000000    -3.396000000    -2.375000000
O    -3.412000000    -5.340000000    -7.038000000
H    -4.059000000    -5.011000000    -6.415000000
H    -3.367000000    -6.280000000    -6.864000000
O    -6.455000000     2.574000000    -3.654000000
H    -5.988000000     2.631000000    -4.487000000
H    -6.674000000     1.647000000    -3.565000000
O    -2.342000000     1.132000000    -7.468000000
H    -2.082000000     0.452000000    -6.847000000
H    -1.912000000     0.885000000    -8.287000000
O    -0.969000000    -3.196000000    -4.660000000
H    -1.696000000    -3.307000000    -4.047000000
H    -0.345000000    -3.879000000    -4.417000000
O    -8.935000000    -1.838000000     1.930000000
H    -9.267000000    -2.598000000     1.452000000
H    -7.993000000    -1.840000000     1.759000000
O    -4.037000000     2.112000000    -5.234000000
H    -3.318000000     1.639000000    -5.653000000
H    -3.646000000     2.493000000    -4.447000000
O    -2.017000000     1.554000000    -3.041000000
H    -2.155000000     1.074000000    -2.224000000
H    -1.085000000     1.772000000    -3.036000000
O    -2.228000000    -8.022000000    -5.271000000
H    -1.286000000    -8.074000000    -5.433000000
H    -2.373000000    -7.120000000    -4.985000000
O    -0.018000000    -2.268000000    -7.237000000
H    -0.432000000    -2.677000000    -6.477000000
H     0.749000000    -2.813000000    -7.413000000
O    -7.424000000    -5.543000000     1.139000000
H    -6.476000000    -5.647000000     1.068000000
H    -7.559000000    -5.164000000     2.008000000
O    -5.053000000    -0.537000000    -3.391000000
H    -4.879000000    -1.189000000    -2.712000000
H    -4.229000000    -0.468000000    -3.873000000
O    -3.002000000    -5.615000000    -4.077000000
H    -2.919000000    -4.991000000    -3.356000000
H    -3.756000000    -5.303000000    -4.577000000
O    -7.499000000    -1.642000000    -2.214000000
H    -6.757000000    -1.046000000    -2.314000000
H    -8.234000000    -1.180000000    -2.618000000
O    -5.029000000    -7.344000000    -1.961000000
H    -5.340000000    -6.497000000    -1.641000000
H    -4.400000000    -7.124000000    -2.648000000
