215
-1423.38121
C    -4.424000000    -2.325000000     2.245000000
H    -4.839000000    -1.391000000     2.616000000
C    -3.164000000    -2.772000000     2.459000000
C    -2.830000000    -3.970000000     1.894000000
H    -1.800000000    -4.318000000     1.910000000
C    -2.109000000    -2.006000000     3.332000000
O    -2.740000000    -1.126000000     4.293000000
H    -1.449000000    -1.439000000     2.659000000
O    -1.082000000    -2.816000000     4.117000000
C     0.242000000    -2.516000000     3.987000000
C     0.999000000    -3.234000000     3.137000000
H     0.570000000    -4.036000000     2.542000000
C     2.326000000    -2.851000000     2.867000000
O     2.990000000    -3.537000000     1.818000000
C     2.845000000    -1.780000000     3.568000000
C     4.271000000    -1.286000000     3.341000000
H     4.654000000    -0.780000000     4.230000000
C     4.343000000    -0.387000000     2.142000000
C     4.100000000     0.986000000     2.352000000
H     3.905000000     1.423000000     3.328000000
H     4.971000000    -2.104000000     3.158000000
C     2.045000000    -1.029000000     4.463000000
H     2.456000000    -0.099000000     4.848000000
C     0.743000000    -1.407000000     4.712000000
C    -0.229000000    -0.591000000     5.563000000
H     0.270000000    -0.165000000     6.436000000
H    -0.982000000    -1.257000000     5.990000000
C    -0.991000000     0.448000000     4.804000000
C    -0.454000000     1.712000000     4.669000000
H     0.452000000     1.962000000     5.216000000
C    -2.160000000     0.098000000     4.197000000
C    -2.903000000     1.046000000     3.460000000
H    -3.910000000     0.856000000     3.098000000
C    -2.331000000     2.274000000     3.167000000
O    -2.910000000     3.104000000     2.274000000
C    -2.393000000     3.425000000     0.978000000
C    -3.460000000     3.413000000    -0.078000000
C    -3.183000000     4.027000000    -1.283000000
H    -2.205000000     4.449000000    -1.499000000
C    -4.617000000     2.625000000     0.010000000
H    -4.817000000     2.078000000     0.927000000
O    -1.513000000     4.607000000     0.948000000
H    -1.792000000     2.534000000     0.744000000
C    -1.109000000     2.643000000     3.816000000
C    -0.486000000     4.042000000     3.589000000
H     0.188000000     4.170000000     4.439000000
H    -1.174000000     4.882000000     3.707000000
C     0.447000000     4.166000000     2.332000000
C     1.773000000     3.839000000     2.402000000
H     2.092000000     3.493000000     3.381000000
C    -0.154000000     4.335000000     1.076000000
C     0.652000000     4.373000000    -0.056000000
H     0.309000000     4.598000000    -1.062000000
C     2.065000000     4.156000000     0.017000000
O     2.604000000     3.899000000    -1.212000000
C     2.993000000     2.509000000    -1.666000000
C     2.858000000     2.634000000    -3.235000000
C     1.793000000     3.269000000    -3.790000000
H     0.988000000     3.743000000    -3.234000000
C     3.712000000     1.925000000    -4.047000000
H     4.562000000     1.428000000    -3.586000000
O     4.321000000     2.052000000    -1.182000000
H     2.237000000     1.773000000    -1.352000000
C     2.622000000     3.806000000     1.239000000
C     4.070000000     3.369000000     1.427000000
H     4.403000000     3.591000000     2.443000000
H     4.750000000     3.917000000     0.772000000
C     4.228000000     1.814000000     1.246000000
C     4.446000000     1.305000000    -0.055000000
C     4.557000000    -0.067000000    -0.288000000
H     4.704000000    -0.449000000    -1.295000000
C     4.585000000    -0.922000000     0.838000000
O     4.521000000    -2.228000000     0.609000000
C     3.183000000    -2.830000000     0.550000000
H     2.408000000    -2.054000000     0.463000000
C     2.908000000    -3.747000000    -0.640000000
C     1.871000000    -4.711000000    -0.561000000
H     1.562000000    -5.131000000     0.393000000
C     3.450000000    -3.341000000    -1.837000000
H     4.184000000    -2.540000000    -1.801000000
C     3.171000000    -4.067000000    -2.952000000
O     3.599000000    -3.653000000    -4.191000000
C     2.171000000    -5.057000000    -2.941000000
H     2.069000000    -5.693000000    -3.816000000
C     1.625000000    -5.456000000    -1.688000000
O     0.862000000    -6.648000000    -1.626000000
C     0.043000000    -6.902000000    -0.548000000
C    -1.176000000    -6.283000000    -0.564000000
H    -1.453000000    -5.773000000    -1.483000000
C     0.473000000    -7.714000000     0.531000000
H     1.479000000    -8.124000000     0.531000000
C    -0.394000000    -7.795000000     1.684000000
H    -0.045000000    -8.318000000     2.571000000
C    -1.608000000    -7.092000000     1.696000000
H    -2.216000000    -7.149000000     2.596000000
C    -2.023000000    -6.344000000     0.560000000
O    -3.331000000    -5.797000000     0.439000000
C    -3.646000000    -4.649000000     1.036000000
C    -4.967000000    -4.224000000     0.850000000
H    -5.658000000    -4.685000000     0.149000000
C    -5.334000000    -3.037000000     1.469000000
O    -6.555000000    -2.407000000     1.130000000
C    -6.781000000    -1.057000000     1.233000000
C    -6.725000000    -0.311000000     0.052000000
H    -6.508000000    -0.782000000    -0.903000000
C    -7.166000000    -0.435000000     2.431000000
H    -7.293000000    -1.021000000     3.338000000
C    -7.433000000     0.949000000     2.454000000
H    -7.959000000     1.380000000     3.302000000
C    -7.331000000     1.702000000     1.252000000
H    -7.550000000     2.766000000     1.228000000
C    -6.899000000     1.011000000     0.136000000
O    -6.642000000     1.677000000    -0.965000000
C    -5.526000000     2.564000000    -1.083000000
C    -5.258000000     3.312000000    -2.258000000
H    -5.924000000     3.309000000    -3.117000000
C    -4.115000000     4.033000000    -2.363000000
O    -3.788000000     4.462000000    -3.602000000
C    -2.559000000     4.925000000    -3.952000000
C    -1.793000000     4.177000000    -4.780000000
H    -2.079000000     3.167000000    -5.066000000
C    -2.165000000     6.158000000    -3.472000000
H    -2.818000000     6.767000000    -2.853000000
C    -0.898000000     6.602000000    -3.707000000
H    -0.650000000     7.577000000    -3.297000000
C    -0.066000000     5.897000000    -4.564000000
H     0.894000000     6.304000000    -4.872000000
C    -0.482000000     4.663000000    -5.071000000
O     0.387000000     3.793000000    -5.679000000
C     1.484000000     3.087000000    -5.130000000
C     2.294000000     2.209000000    -5.934000000
H     2.187000000     2.094000000    -7.009000000
C     3.388000000     1.623000000    -5.354000000
O     4.095000000     0.706000000    -6.085000000
C     4.616000000    -0.473000000    -5.554000000
C     5.990000000    -0.564000000    -5.374000000
H     6.629000000     0.233000000    -5.746000000
C     6.639000000    -1.638000000    -4.811000000
H     7.689000000    -1.534000000    -4.549000000
C     5.790000000    -2.739000000    -4.406000000
H     6.253000000    -3.648000000    -4.029000000
C     4.408000000    -2.652000000    -4.532000000
C     3.820000000    -1.530000000    -5.125000000
H     2.741000000    -1.445000000    -5.034000000
C     0.302000000    -1.647000000    -2.367000000
H     0.842000000    -2.047000000    -3.222000000
C     0.897000000    -0.657000000    -1.564000000
H     1.863000000    -0.272000000    -1.882000000
C     0.277000000    -0.084000000    -0.480000000
H     0.717000000     0.713000000    -0.006000000
C    -1.014000000    -0.586000000    -0.110000000
H    -1.624000000    -0.116000000     0.657000000
C    -1.601000000    -1.542000000    -0.929000000
H    -2.650000000    -1.725000000    -0.710000000
C    -0.990000000    -2.088000000    -2.027000000
C    -1.695000000    -3.152000000    -2.935000000
O    -2.912000000    -3.035000000    -3.254000000
O    -1.007000000    -3.866000000    -3.644000000
O    -6.108000000    -6.718000000    -1.912000000
H    -5.406000000    -6.206000000    -2.313000000
H    -5.714000000    -7.087000000    -1.122000000
O    -6.749000000    -0.842000000    -4.219000000
H    -6.121000000    -0.609000000    -3.536000000
H    -6.257000000    -0.756000000    -5.036000000
O    -4.281000000    -0.859000000    -2.939000000
H    -3.938000000    -1.742000000    -2.802000000
H    -3.716000000    -0.485000000    -3.615000000
O    -0.442000000    -6.866000000    -7.617000000
H     0.349000000    -6.347000000    -7.761000000
H    -0.723000000    -6.635000000    -6.732000000
O    -6.330000000    -4.571000000    -4.879000000
H    -6.034000000    -4.932000000    -5.714000000
H    -6.292000000    -5.310000000    -4.272000000
O    -2.201000000    -4.713000000    -7.725000000
H    -1.265000000    -4.517000000    -7.698000000
H    -2.545000000    -4.357000000    -6.906000000
O    -4.923000000    -0.492000000    -6.281000000
H    -4.056000000    -0.505000000    -5.875000000
H    -4.820000000    -1.003000000    -7.084000000
O    -4.226000000    -5.222000000    -2.979000000
H    -4.084000000    -4.278000000    -3.045000000
H    -3.428000000    -5.610000000    -3.338000000
O    -0.805000000     0.083000000    -7.213000000
H    -0.226000000     0.762000000    -7.559000000
H    -0.442000000    -0.736000000    -7.552000000
O    -1.570000000    -6.449000000    -4.442000000
H    -1.343000000    -5.524000000    -4.350000000
H    -0.857000000    -6.915000000    -4.005000000
O     0.519000000    -8.527000000    -5.293000000
H     0.421000000    -8.814000000    -6.201000000
H    -0.359000000    -8.604000000    -4.921000000
O    -4.246000000    -8.479000000    -0.607000000
H    -3.579000000    -8.926000000    -1.128000000
H    -3.844000000    -7.645000000    -0.367000000
O    -2.418000000    -0.455000000    -5.033000000
H    -1.690000000    -0.582000000    -4.425000000
H    -2.001000000    -0.216000000    -5.861000000
O    -3.569000000    -3.579000000    -5.645000000
H    -4.517000000    -3.489000000    -5.545000000
H    -3.216000000    -3.378000000    -4.778000000
O     0.096000000    -4.161000000    -6.241000000
H     0.981000000    -4.503000000    -6.111000000
H    -0.221000000    -3.974000000    -5.358000000
O    -5.097000000    -4.510000000    -7.834000000
H    -4.843000000    -3.706000000    -8.288000000
H    -4.267000000    -4.924000000    -7.598000000
O    -3.685000000    -7.696000000    -6.796000000
H    -3.255000000    -6.998000000    -7.289000000
H    -3.143000000    -7.807000000    -6.015000000
O     2.535000000    -5.319000000    -6.443000000
H     3.426000000    -5.468000000    -6.127000000
H     2.641000000    -5.122000000    -7.374000000
O     0.824000000    -2.140000000    -8.082000000
H     1.279000000    -2.529000000    -8.829000000
H     0.451000000    -2.886000000    -7.613000000
