215
-1488.07351
C    -4.162000000    -1.991000000     2.300000000
H    -4.555000000    -0.998000000     2.505000000
C    -2.982000000    -2.504000000     2.751000000
C    -2.776000000    -3.816000000     2.429000000
H    -1.789000000    -4.231000000     2.614000000
C    -1.954000000    -1.649000000     3.468000000
O    -2.512000000    -0.557000000     4.139000000
H    -1.376000000    -1.219000000     2.636000000
O    -1.145000000    -2.354000000     4.411000000
C     0.221000000    -2.133000000     4.281000000
C     0.952000000    -3.008000000     3.428000000
H     0.524000000    -3.847000000     2.884000000
C     2.247000000    -2.682000000     3.181000000
O     2.938000000    -3.478000000     2.296000000
C     2.919000000    -1.576000000     3.772000000
C     4.296000000    -1.267000000     3.319000000
H     4.827000000    -0.757000000     4.126000000
C     4.225000000    -0.380000000     2.061000000
C     4.254000000     1.041000000     2.186000000
H     4.277000000     1.455000000     3.191000000
H     4.906000000    -2.147000000     3.104000000
C     2.175000000    -0.726000000     4.559000000
H     2.613000000     0.184000000     4.960000000
C     0.811000000    -0.972000000     4.759000000
C    -0.025000000     0.004000000     5.574000000
H     0.522000000     0.456000000     6.405000000
H    -0.832000000    -0.473000000     6.135000000
C    -0.721000000     1.012000000     4.665000000
C    -0.097000000     2.251000000     4.397000000
H     0.787000000     2.508000000     4.976000000
C    -1.930000000     0.684000000     3.999000000
C    -2.524000000     1.626000000     3.147000000
H    -3.463000000     1.370000000     2.663000000
C    -1.960000000     2.884000000     2.986000000
O    -2.584000000     3.671000000     2.058000000
C    -1.951000000     3.951000000     0.745000000
C    -3.044000000     4.016000000    -0.337000000
C    -2.929000000     4.840000000    -1.450000000
H    -2.137000000     5.584000000    -1.465000000
C    -3.973000000     2.996000000    -0.356000000
H    -3.978000000     2.320000000     0.496000000
O    -1.165000000     5.150000000     0.764000000
H    -1.274000000     3.094000000     0.612000000
C    -0.756000000     3.227000000     3.610000000
C    -0.084000000     4.575000000     3.375000000
H     0.503000000     4.901000000     4.236000000
H    -0.850000000     5.349000000     3.293000000
C     0.711000000     4.488000000     2.112000000
C     2.068000000     4.097000000     2.168000000
H     2.459000000     3.867000000     3.156000000
C     0.150000000     4.889000000     0.912000000
C     0.866000000     4.665000000    -0.274000000
H     0.348000000     4.854000000    -1.211000000
C     2.156000000     4.100000000    -0.199000000
O     2.779000000     3.826000000    -1.372000000
C     2.771000000     2.429000000    -1.637000000
C     2.445000000     2.140000000    -3.089000000
C     1.646000000     3.060000000    -3.857000000
H     1.355000000     4.039000000    -3.486000000
C     2.643000000     0.884000000    -3.633000000
H     3.141000000     0.159000000    -2.994000000
O     4.114000000     1.908000000    -1.463000000
H     2.088000000     1.827000000    -1.018000000
C     2.845000000     3.887000000     0.986000000
C     4.270000000     3.379000000     1.023000000
H     4.771000000     3.780000000     1.906000000
H     4.826000000     3.778000000     0.172000000
C     4.353000000     1.823000000     1.014000000
C     4.400000000     1.184000000    -0.272000000
C     4.396000000    -0.219000000    -0.396000000
H     4.156000000    -0.748000000    -1.315000000
C     4.306000000    -0.986000000     0.747000000
O     4.263000000    -2.353000000     0.619000000
C     3.027000000    -3.042000000     0.893000000
H     2.226000000    -2.310000000     0.711000000
C     2.802000000    -4.247000000    -0.100000000
C     1.919000000    -5.255000000     0.201000000
H     1.394000000    -5.264000000     1.153000000
C     3.413000000    -4.107000000    -1.362000000
H     4.112000000    -3.284000000    -1.488000000
C     3.204000000    -5.087000000    -2.304000000
O     3.671000000    -4.902000000    -3.578000000
C     2.236000000    -6.068000000    -2.066000000
H     2.016000000    -6.835000000    -2.804000000
C     1.595000000    -6.125000000    -0.838000000
O     0.606000000    -7.070000000    -0.679000000
C    -0.256000000    -7.057000000     0.409000000
C    -1.478000000    -6.501000000     0.383000000
H    -1.770000000    -5.858000000    -0.444000000
C     0.136000000    -7.882000000     1.491000000
H     1.116000000    -8.349000000     1.424000000
C    -0.742000000    -8.109000000     2.531000000
H    -0.476000000    -8.761000000     3.360000000
C    -1.999000000    -7.410000000     2.548000000
H    -2.692000000    -7.551000000     3.374000000
C    -2.329000000    -6.610000000     1.477000000
O    -3.536000000    -6.013000000     1.483000000
C    -3.788000000    -4.733000000     1.895000000
C    -4.995000000    -4.170000000     1.534000000
H    -5.841000000    -4.758000000     1.186000000
C    -5.133000000    -2.755000000     1.650000000
O    -6.228000000    -2.148000000     1.222000000
C    -6.426000000    -0.793000000     0.889000000
C    -5.809000000    -0.252000000    -0.209000000
H    -5.191000000    -0.811000000    -0.908000000
C    -7.173000000    -0.070000000     1.807000000
H    -7.661000000    -0.620000000     2.608000000
C    -7.400000000     1.288000000     1.520000000
H    -7.919000000     1.746000000     2.358000000
C    -6.946000000     1.835000000     0.313000000
H    -7.094000000     2.903000000     0.175000000
C    -6.143000000     1.040000000    -0.506000000
O    -5.568000000     1.698000000    -1.562000000
C    -4.751000000     2.771000000    -1.509000000
C    -4.571000000     3.518000000    -2.644000000
H    -5.240000000     3.436000000    -3.497000000
C    -3.630000000     4.520000000    -2.624000000
O    -3.474000000     5.283000000    -3.766000000
C    -2.251000000     5.470000000    -4.333000000
C    -1.516000000     4.371000000    -4.738000000
H    -1.792000000     3.340000000    -4.530000000
C    -1.935000000     6.783000000    -4.800000000
H    -2.696000000     7.547000000    -4.671000000
C    -0.745000000     7.011000000    -5.495000000
H    -0.534000000     8.002000000    -5.887000000
C     0.072000000     5.881000000    -5.845000000
H     0.924000000     5.993000000    -6.512000000
C    -0.280000000     4.626000000    -5.394000000
O     0.408000000     3.615000000    -5.941000000
C     1.145000000     2.696000000    -5.114000000
C     1.438000000     1.503000000    -5.695000000
H     1.045000000     1.201000000    -6.663000000
C     2.191000000     0.573000000    -4.960000000
O     2.398000000    -0.717000000    -5.440000000
C     3.378000000    -1.620000000    -5.091000000
C     4.712000000    -1.251000000    -5.378000000
H     4.858000000    -0.271000000    -5.824000000
C     5.720000000    -2.151000000    -5.067000000
H     6.761000000    -1.850000000    -5.149000000
C     5.366000000    -3.322000000    -4.370000000
H     6.150000000    -4.011000000    -4.066000000
C     4.044000000    -3.733000000    -4.092000000
C     3.057000000    -2.870000000    -4.548000000
H     2.021000000    -3.196000000    -4.530000000
C     0.226000000    -1.462000000    -1.799000000
H     0.969000000    -1.936000000    -2.435000000
C     0.672000000    -0.642000000    -0.767000000
H     1.733000000    -0.442000000    -0.644000000
C    -0.196000000    -0.118000000     0.154000000
H     0.134000000     0.601000000     0.964000000
C    -1.554000000    -0.328000000    -0.059000000
H    -2.296000000     0.102000000     0.609000000
C    -2.075000000    -1.149000000    -1.101000000
H    -3.150000000    -1.309000000    -1.078000000
C    -1.168000000    -1.802000000    -1.962000000
C    -1.653000000    -2.594000000    -3.105000000
O    -2.853000000    -2.670000000    -3.254000000
O    -0.901000000    -3.134000000    -3.907000000
O    -4.338000000    -0.404000000    -3.473000000
H    -4.159000000    -1.343000000    -3.424000000
H    -3.492000000     0.011000000    -3.301000000
O     1.431000000    -7.312000000    -6.176000000
H     2.323000000    -7.014000000    -6.349000000
H     1.030000000    -6.595000000    -5.684000000
O    -5.939000000    -4.502000000    -3.984000000
H    -5.283000000    -4.318000000    -4.657000000
H    -5.456000000    -4.452000000    -3.159000000
O    -0.417000000    -5.724000000    -7.943000000
H    -0.082000000    -6.612000000    -8.068000000
H    -1.346000000    -5.844000000    -7.749000000
O    -2.105000000    -1.519000000    -8.062000000
H    -2.836000000    -2.121000000    -7.922000000
H    -1.580000000    -1.589000000    -7.264000000
O    -4.314000000    -4.532000000    -1.815000000
H    -3.910000000    -3.698000000    -2.055000000
H    -3.620000000    -5.179000000    -1.938000000
O    -1.141000000    -8.487000000    -2.564000000
H    -0.344000000    -8.337000000    -2.056000000
H    -0.830000000    -8.812000000    -3.408000000
O    -7.210000000    -2.375000000    -2.845000000
H    -6.788000000    -2.982000000    -3.452000000
H    -7.130000000    -2.797000000    -1.990000000
O    -7.664000000     0.151000000    -3.587000000
H    -6.819000000     0.389000000    -3.206000000
H    -7.743000000    -0.789000000    -3.426000000
O    -3.067000000    -6.635000000    -7.397000000
H    -3.915000000    -6.862000000    -7.015000000
H    -2.782000000    -7.435000000    -7.839000000
O    -0.474000000    -1.522000000    -5.940000000
H    -0.716000000    -2.141000000    -5.251000000
H    -0.024000000    -0.815000000    -5.479000000
O    -0.188000000    -5.356000000    -5.085000000
H     0.098000000    -5.074000000    -5.953000000
H    -0.426000000    -4.546000000    -4.636000000
O    -5.795000000    -6.978000000    -0.449000000
H    -5.250000000    -6.390000000    -0.972000000
H    -6.177000000    -7.581000000    -1.087000000
O    -1.938000000     1.428000000    -2.590000000
H    -1.387000000     1.036000000    -1.912000000
H    -2.750000000     1.654000000    -2.137000000
O    -4.527000000    -0.047000000    -6.315000000
H    -4.509000000    -0.401000000    -5.426000000
H    -3.887000000    -0.572000000    -6.796000000
O    -3.395000000    -4.608000000    -5.345000000
H    -2.656000000    -5.128000000    -5.661000000
H    -3.037000000    -4.100000000    -4.617000000
O    -3.912000000    -3.439000000    -7.612000000
H    -4.019000000    -4.132000000    -8.264000000
H    -3.910000000    -3.897000000    -6.772000000
O    -2.566000000    -6.377000000    -2.888000000
H    -1.948000000    -6.246000000    -3.607000000
H    -2.268000000    -7.180000000    -2.460000000
O     1.294000000    -3.536000000    -7.144000000
H     0.775000000    -3.960000000    -7.828000000
H     0.872000000    -2.686000000    -7.015000000
