215
-1454.45283
C    -4.278000000    -0.971000000     3.310000000
H    -4.363000000     0.018000000     3.754000000
C    -3.109000000    -1.763000000     3.373000000
C    -3.156000000    -3.056000000     2.747000000
H    -2.270000000    -3.641000000     2.981000000
C    -1.821000000    -1.195000000     3.832000000
O    -2.022000000    -0.042000000     4.700000000
H    -1.231000000    -0.961000000     2.934000000
O    -1.025000000    -2.113000000     4.611000000
C     0.354000000    -2.014000000     4.348000000
C     0.949000000    -3.014000000     3.558000000
H     0.355000000    -3.860000000     3.221000000
C     2.232000000    -2.848000000     3.093000000
O     2.580000000    -3.753000000     2.130000000
C     3.030000000    -1.830000000     3.585000000
C     4.400000000    -1.614000000     2.965000000
H     4.859000000    -0.915000000     3.667000000
C     4.471000000    -0.776000000     1.679000000
C     4.717000000     0.576000000     1.685000000
H     4.819000000     1.080000000     2.642000000
H     5.042000000    -2.497000000     2.979000000
C     2.518000000    -0.930000000     4.503000000
H     3.143000000    -0.157000000     4.944000000
C     1.164000000    -0.989000000     4.858000000
C     0.578000000     0.118000000     5.674000000
H     1.414000000     0.612000000     6.173000000
H    -0.054000000    -0.277000000     6.472000000
C    -0.103000000     1.158000000     4.779000000
C     0.550000000     2.334000000     4.395000000
H     1.521000000     2.602000000     4.803000000
C    -1.420000000     1.074000000     4.325000000
C    -2.082000000     1.995000000     3.533000000
H    -3.127000000     1.898000000     3.252000000
C    -1.275000000     3.056000000     3.060000000
O    -1.890000000     3.914000000     2.174000000
C    -1.324000000     3.833000000     0.822000000
C    -2.334000000     3.839000000    -0.325000000
C    -2.242000000     4.669000000    -1.468000000
H    -1.544000000     5.502000000    -1.467000000
C    -3.352000000     2.948000000    -0.194000000
H    -3.486000000     2.337000000     0.695000000
O    -0.435000000     4.904000000     0.684000000
H    -0.876000000     2.830000000     0.766000000
C     0.023000000     3.247000000     3.467000000
C     0.890000000     4.386000000     3.094000000
H     1.647000000     4.576000000     3.858000000
H     0.371000000     5.347000000     3.088000000
C     1.563000000     4.205000000     1.739000000
C     2.869000000     3.786000000     1.738000000
H     3.426000000     3.604000000     2.653000000
C     0.879000000     4.526000000     0.587000000
C     1.451000000     4.183000000    -0.607000000
H     0.846000000     4.295000000    -1.503000000
C     2.788000000     3.624000000    -0.686000000
O     3.259000000     3.210000000    -1.910000000
C     3.076000000     1.807000000    -2.134000000
C     2.397000000     1.492000000    -3.457000000
C     1.558000000     2.444000000    -4.056000000
H     1.502000000     3.433000000    -3.608000000
C     2.549000000     0.223000000    -4.051000000
H     3.082000000    -0.604000000    -3.588000000
O     4.429000000     1.160000000    -1.998000000
H     2.474000000     1.374000000    -1.321000000
C     3.460000000     3.451000000     0.536000000
C     4.838000000     2.785000000     0.537000000
H     5.501000000     3.098000000     1.346000000
H     5.504000000     2.970000000    -0.308000000
C     4.649000000     1.241000000     0.467000000
C     4.457000000     0.530000000    -0.766000000
C     4.344000000    -0.840000000    -0.734000000
H     4.171000000    -1.354000000    -1.676000000
C     4.215000000    -1.465000000     0.484000000
O     3.935000000    -2.817000000     0.484000000
C     2.537000000    -3.311000000     0.747000000
H     1.760000000    -2.533000000     0.709000000
C     2.127000000    -4.406000000    -0.227000000
C     0.912000000    -5.023000000     0.064000000
H     0.502000000    -5.044000000     1.070000000
C     2.678000000    -4.497000000    -1.506000000
H     3.584000000    -4.001000000    -1.845000000
C     2.135000000    -5.441000000    -2.387000000
O     2.818000000    -5.590000000    -3.587000000
C     0.939000000    -6.065000000    -2.058000000
H     0.531000000    -6.810000000    -2.736000000
C     0.316000000    -5.910000000    -0.882000000
O    -0.829000000    -6.540000000    -0.612000000
C    -1.521000000    -6.472000000     0.565000000
C    -2.605000000    -5.703000000     0.674000000
H    -2.980000000    -5.371000000    -0.291000000
C    -1.126000000    -7.284000000     1.651000000
H    -0.277000000    -7.952000000     1.532000000
C    -1.857000000    -7.238000000     2.875000000
H    -1.441000000    -7.683000000     3.775000000
C    -3.004000000    -6.500000000     2.964000000
H    -3.685000000    -6.392000000     3.805000000
C    -3.276000000    -5.734000000     1.868000000
O    -4.423000000    -4.860000000     1.947000000
C    -4.362000000    -3.584000000     2.285000000
C    -5.480000000    -2.854000000     2.256000000
H    -6.446000000    -3.216000000     1.916000000
C    -5.463000000    -1.596000000     2.803000000
O    -6.560000000    -0.757000000     2.662000000
C    -6.621000000     0.424000000     1.936000000
C    -5.915000000     0.593000000     0.760000000
H    -5.311000000    -0.231000000     0.392000000
C    -7.496000000     1.465000000     2.299000000
H    -8.171000000     1.284000000     3.131000000
C    -7.611000000     2.629000000     1.508000000
H    -8.363000000     3.349000000     1.820000000
C    -6.846000000     2.775000000     0.397000000
H    -6.911000000     3.660000000    -0.231000000
C    -5.948000000     1.791000000     0.022000000
O    -5.216000000     1.909000000    -1.139000000
C    -4.228000000     2.838000000    -1.278000000
C    -4.064000000     3.528000000    -2.503000000
H    -4.731000000     3.513000000    -3.361000000
C    -3.163000000     4.531000000    -2.543000000
O    -2.986000000     5.368000000    -3.573000000
C    -1.845000000     5.385000000    -4.387000000
C    -1.112000000     4.226000000    -4.684000000
H    -1.437000000     3.269000000    -4.285000000
C    -1.476000000     6.608000000    -4.946000000
H    -2.047000000     7.492000000    -4.672000000
C    -0.426000000     6.671000000    -5.829000000
H    -0.164000000     7.631000000    -6.265000000
C     0.249000000     5.526000000    -6.146000000
H     1.080000000     5.525000000    -6.847000000
C    -0.089000000     4.312000000    -5.627000000
O     0.516000000     3.186000000    -6.172000000
C     1.092000000     2.194000000    -5.401000000
C     1.365000000     0.931000000    -6.009000000
H     0.866000000     0.740000000    -6.956000000
C     2.054000000    -0.032000000    -5.316000000
O     2.268000000    -1.266000000    -5.953000000
C     3.037000000    -2.259000000    -5.382000000
C     4.413000000    -2.234000000    -5.519000000
H     4.813000000    -1.446000000    -6.154000000
C     5.285000000    -3.240000000    -5.065000000
H     6.362000000    -3.123000000    -5.157000000
C     4.699000000    -4.357000000    -4.475000000
H     5.251000000    -5.234000000    -4.146000000
C     3.341000000    -4.501000000    -4.341000000
C     2.512000000    -3.464000000    -4.879000000
H     1.436000000    -3.614000000    -4.920000000
C    -0.020000000    -1.710000000    -2.016000000
H     0.575000000    -1.819000000    -2.919000000
C     0.395000000    -0.864000000    -1.041000000
H     1.417000000    -0.498000000    -1.104000000
C    -0.430000000    -0.584000000    -0.012000000
H    -0.232000000     0.278000000     0.694000000
C    -1.655000000    -1.194000000     0.077000000
H    -2.412000000    -1.043000000     0.842000000
C    -2.021000000    -2.173000000    -0.841000000
H    -2.948000000    -2.729000000    -0.724000000
C    -1.246000000    -2.398000000    -1.941000000
C    -1.823000000    -3.254000000    -3.077000000
O    -2.712000000    -4.063000000    -2.823000000
O    -1.166000000    -3.358000000    -4.116000000
O    -5.731000000    -1.981000000    -7.571000000
H    -5.840000000    -2.466000000    -6.754000000
H    -5.552000000    -2.654000000    -8.227000000
O    -2.465000000     0.581000000    -5.124000000
H    -1.876000000    -0.053000000    -5.534000000
H    -2.153000000     0.648000000    -4.221000000
O     1.145000000    -8.604000000    -4.893000000
H     0.991000000    -8.693000000    -5.833000000
H     1.234000000    -7.661000000    -4.753000000
O    -6.454000000    -3.119000000    -5.102000000
H    -6.951000000    -2.517000000    -4.548000000
H    -5.904000000    -3.609000000    -4.491000000
O    -1.428000000    -2.631000000    -8.436000000
H    -1.837000000    -3.098000000    -9.164000000
H    -2.020000000    -2.774000000    -7.697000000
O    -5.409000000    -4.545000000    -3.108000000
H    -4.513000000    -4.225000000    -3.001000000
H    -5.559000000    -5.098000000    -2.341000000
O    -2.660000000    -8.812000000    -3.637000000
H    -2.642000000    -9.519000000    -4.282000000
H    -1.957000000    -9.028000000    -3.024000000
O    -5.495000000    -6.997000000    -4.407000000
H    -5.513000000    -6.041000000    -4.436000000
H    -6.151000000    -7.230000000    -3.750000000
O    -0.881000000    -1.498000000    -5.796000000
H    -0.850000000    -2.302000000    -5.279000000
H    -0.226000000    -1.629000000    -6.482000000
O     0.022000000    -5.543000000    -5.307000000
H    -0.334000000    -4.980000000    -4.621000000
H    -0.693000000    -6.141000000    -5.522000000
O    -4.399000000    -8.133000000    -1.108000000
H    -3.824000000    -8.002000000    -1.862000000
H    -5.037000000    -8.782000000    -1.403000000
O    -2.155000000     0.613000000    -2.369000000
H    -1.614000000    -0.164000000    -2.232000000
H    -2.516000000     0.810000000    -1.504000000
O    -4.843000000     0.694000000    -6.969000000
H    -4.267000000     0.712000000    -6.204000000
H    -4.987000000    -0.237000000    -7.138000000
O    -2.966000000    -3.666000000    -6.387000000
H    -3.546000000    -2.979000000    -6.058000000
H    -2.473000000    -3.951000000    -5.617000000
O    -2.215000000    -6.240000000    -7.631000000
H    -2.688000000    -5.409000000    -7.684000000
H    -2.182000000    -6.438000000    -6.695000000
O    -6.496000000     0.338000000    -4.783000000
H    -6.437000000    -0.069000000    -3.919000000
H    -5.944000000     1.117000000    -4.719000000
O    -2.732000000    -6.150000000    -4.876000000
H    -3.121000000    -6.933000000    -4.485000000
H    -2.898000000    -5.457000000    -4.237000000
O    -5.750000000    -5.827000000    -0.450000000
H    -5.307000000    -6.675000000    -0.484000000
H    -5.330000000    -5.365000000     0.274000000
O     0.637000000    -4.274000000    -7.725000000
H     0.287000000    -4.961000000    -7.158000000
H    -0.123000000    -3.739000000    -7.951000000
