215
-1454.59424
C    -4.998000000    -1.758000000     1.483000000
H    -5.324000000    -0.728000000     1.601000000
C    -3.847000000    -2.110000000     2.154000000
C    -3.541000000    -3.422000000     2.154000000
H    -2.736000000    -3.748000000     2.808000000
C    -2.994000000    -1.102000000     2.873000000
O    -3.731000000     0.089000000     3.203000000
H    -2.196000000    -0.780000000     2.187000000
O    -2.328000000    -1.722000000     4.054000000
C    -1.042000000    -1.246000000     4.282000000
C    -0.056000000    -2.176000000     4.037000000
H    -0.372000000    -3.193000000     3.816000000
C     1.258000000    -1.788000000     4.055000000
O     2.256000000    -2.635000000     3.625000000
C     1.572000000    -0.523000000     4.594000000
C     3.070000000    -0.145000000     4.634000000
H     3.269000000     0.570000000     5.435000000
C     3.576000000     0.371000000     3.312000000
C     3.429000000     1.729000000     2.960000000
H     2.916000000     2.405000000     3.639000000
H     3.648000000    -0.976000000     5.044000000
C     0.636000000     0.347000000     5.025000000
H     0.818000000     1.387000000     5.283000000
C    -0.749000000    -0.015000000     4.831000000
C    -1.776000000     1.029000000     5.158000000
H    -1.406000000     1.716000000     5.922000000
H    -2.680000000     0.569000000     5.563000000
C    -2.174000000     1.803000000     3.898000000
C    -1.572000000     3.064000000     3.595000000
H    -0.825000000     3.468000000     4.274000000
C    -3.092000000     1.272000000     2.944000000
C    -3.321000000     1.938000000     1.778000000
H    -4.080000000     1.590000000     1.080000000
C    -2.767000000     3.157000000     1.452000000
O    -3.010000000     3.719000000     0.194000000
C    -2.052000000     3.315000000    -0.823000000
C    -2.742000000     3.005000000    -2.146000000
C    -2.326000000     3.552000000    -3.291000000
H    -1.532000000     4.293000000    -3.338000000
C    -3.883000000     2.183000000    -2.086000000
H    -4.201000000     1.718000000    -1.157000000
O    -1.149000000     4.420000000    -0.991000000
H    -1.449000000     2.431000000    -0.569000000
C    -1.834000000     3.671000000     2.361000000
C    -1.117000000     4.966000000     1.926000000
H    -0.765000000     5.573000000     2.763000000
H    -1.699000000     5.642000000     1.297000000
C     0.104000000     4.495000000     1.118000000
C     1.329000000     4.333000000     1.704000000
H     1.497000000     4.342000000     2.778000000
C    -0.015000000     4.337000000    -0.298000000
C     1.084000000     4.010000000    -1.042000000
H     0.925000000     3.847000000    -2.105000000
C     2.346000000     3.856000000    -0.438000000
O     3.420000000     3.506000000    -1.187000000
C     3.573000000     2.108000000    -1.266000000
C     3.664000000     1.773000000    -2.717000000
C     2.903000000     2.376000000    -3.713000000
H     2.422000000     3.330000000    -3.514000000
C     4.426000000     0.619000000    -3.044000000
H     5.027000000     0.256000000    -2.214000000
O     4.703000000     1.758000000    -0.456000000
H     2.660000000     1.698000000    -0.809000000
C     2.504000000     4.038000000     0.926000000
C     3.831000000     3.769000000     1.624000000
H     3.879000000     4.142000000     2.650000000
H     4.734000000     4.167000000     1.156000000
C     3.946000000     2.258000000     1.799000000
C     4.509000000     1.361000000     0.830000000
C     4.702000000     0.046000000     1.119000000
H     5.188000000    -0.618000000     0.409000000
C     4.209000000    -0.451000000     2.357000000
O     4.107000000    -1.781000000     2.408000000
C     2.780000000    -2.395000000     2.312000000
H     2.173000000    -1.674000000     1.745000000
C     2.833000000    -3.630000000     1.518000000
C     1.813000000    -4.583000000     1.660000000
H     1.052000000    -4.451000000     2.425000000
C     3.775000000    -3.718000000     0.480000000
H     4.480000000    -2.897000000     0.386000000
C     3.694000000    -4.817000000    -0.392000000
O     4.667000000    -4.979000000    -1.364000000
C     2.655000000    -5.792000000    -0.319000000
H     2.616000000    -6.578000000    -1.070000000
C     1.704000000    -5.608000000     0.690000000
O     0.722000000    -6.598000000     0.677000000
C    -0.360000000    -6.561000000     1.518000000
C    -1.615000000    -6.118000000     1.026000000
H    -1.829000000    -6.015000000    -0.035000000
C    -0.189000000    -6.837000000     2.875000000
H     0.768000000    -7.152000000     3.281000000
C    -1.268000000    -6.495000000     3.704000000
H    -1.177000000    -6.561000000     4.785000000
C    -2.516000000    -6.207000000     3.222000000
H    -3.327000000    -5.908000000     3.882000000
C    -2.627000000    -6.056000000     1.904000000
O    -3.896000000    -5.678000000     1.424000000
C    -4.193000000    -4.339000000     1.362000000
C    -5.262000000    -3.983000000     0.572000000
H    -5.725000000    -4.653000000    -0.148000000
C    -5.661000000    -2.654000000     0.645000000
O    -6.819000000    -2.371000000    -0.074000000
C    -6.964000000    -1.183000000    -0.662000000
C    -5.963000000    -0.609000000    -1.462000000
H    -5.057000000    -1.192000000    -1.602000000
C    -8.190000000    -0.542000000    -0.468000000
H    -9.053000000    -0.966000000     0.039000000
C    -8.384000000     0.719000000    -1.091000000
H    -9.368000000     1.171000000    -0.994000000
C    -7.386000000     1.288000000    -1.927000000
H    -7.452000000     2.262000000    -2.406000000
C    -6.234000000     0.520000000    -2.191000000
O    -5.524000000     0.900000000    -3.279000000
C    -4.576000000     1.859000000    -3.278000000
C    -4.043000000     2.318000000    -4.491000000
H    -4.444000000     2.104000000    -5.479000000
C    -2.973000000     3.153000000    -4.496000000
O    -2.489000000     3.652000000    -5.702000000
C    -1.169000000     3.900000000    -5.986000000
C    -0.218000000     2.835000000    -6.063000000
H    -0.593000000     1.824000000    -6.203000000
C    -0.727000000     5.216000000    -5.942000000
H    -1.427000000     6.040000000    -5.834000000
C     0.588000000     5.538000000    -5.937000000
H     1.002000000     6.543000000    -5.933000000
C     1.540000000     4.524000000    -6.031000000
H     2.593000000     4.780000000    -6.111000000
C     1.146000000     3.175000000    -6.149000000
O     2.071000000     2.240000000    -6.144000000
C     2.738000000     1.713000000    -4.973000000
C     3.337000000     0.467000000    -5.184000000
H     3.364000000    -0.046000000    -6.142000000
C     4.211000000    -0.095000000    -4.232000000
O     4.918000000    -1.285000000    -4.437000000
C     5.503000000    -2.082000000    -3.436000000
C     6.711000000    -1.730000000    -2.823000000
H     7.412000000    -0.985000000    -3.190000000
C     7.256000000    -2.472000000    -1.800000000
H     8.216000000    -2.175000000    -1.385000000
C     6.586000000    -3.678000000    -1.441000000
H     7.068000000    -4.250000000    -0.652000000
C     5.364000000    -3.982000000    -1.938000000
C     4.798000000    -3.203000000    -2.927000000
H     3.828000000    -3.515000000    -3.306000000
C     0.910000000    -1.218000000    -1.780000000
H     1.339000000    -1.924000000    -2.487000000
C     1.625000000    -0.691000000    -0.698000000
H     2.683000000    -0.935000000    -0.633000000
C     0.922000000     0.209000000     0.121000000
H     1.425000000     0.787000000     0.928000000
C    -0.451000000     0.338000000     0.064000000
H    -1.000000000     0.876000000     0.833000000
C    -1.078000000    -0.246000000    -1.029000000
H    -2.154000000    -0.097000000    -1.085000000
C    -0.453000000    -0.974000000    -1.995000000
C    -1.104000000    -1.571000000    -3.214000000
O    -2.319000000    -1.602000000    -3.375000000
O    -0.484000000    -2.139000000    -4.089000000
O    -6.346000000    -0.789000000    -5.567000000
H    -6.592000000    -0.949000000    -6.479000000
H    -6.999000000    -0.165000000    -5.249000000
O    -4.738000000    -2.401000000    -4.234000000
H    -4.005000000    -1.820000000    -4.029000000
H    -5.368000000    -1.840000000    -4.686000000
O    -7.862000000    -2.540000000    -3.348000000
H    -7.374000000    -2.255000000    -4.121000000
H    -7.575000000    -1.949000000    -2.652000000
O    -2.415000000    -2.825000000    -6.513000000
H    -3.331000000    -2.636000000    -6.714000000
H    -2.410000000    -3.018000000    -5.576000000
O    -4.272000000    -4.946000000    -3.906000000
H    -4.394000000    -3.997000000    -3.891000000
H    -4.713000000    -5.231000000    -4.707000000
O    -2.132000000    -0.078000000    -5.775000000
H    -2.400000000     0.398000000    -4.990000000
H    -2.315000000    -0.996000000    -5.572000000
O    -2.092000000    -0.370000000    -9.932000000
H    -1.400000000    -0.653000000    -9.335000000
H    -1.628000000    -0.062000000   -10.710000000
O    -0.039000000    -4.794000000    -3.897000000
H     0.255000000    -4.614000000    -3.004000000
H    -0.317000000    -3.942000000    -4.233000000
O    -4.700000000    -6.540000000    -1.670000000
H    -4.532000000    -5.894000000    -2.356000000
H    -4.342000000    -6.145000000    -0.875000000
O    -1.856000000    -5.584000000    -8.294000000
H    -1.837000000    -4.633000000    -8.408000000
H    -0.970000000    -5.809000000    -8.012000000
O    -2.648000000    -3.888000000    -2.044000000
H    -2.647000000    -3.041000000    -2.490000000
H    -2.922000000    -4.512000000    -2.717000000
O     3.496000000    -4.680000000    -6.917000000
H     4.227000000    -4.065000000    -6.855000000
H     3.832000000    -5.401000000    -7.449000000
O     3.089000000    -1.483000000    -8.704000000
H     2.472000000    -2.137000000    -8.377000000
H     3.926000000    -1.722000000    -8.305000000
O    -0.119000000    -1.333000000    -8.537000000
H    -0.401000000    -1.718000000    -7.707000000
H     0.786000000    -1.062000000    -8.380000000
O     0.892000000    -5.793000000    -6.595000000
H     1.744000000    -5.378000000    -6.462000000
H     0.265000000    -5.184000000    -6.207000000
O    -4.016000000     0.765000000    -7.694000000
H    -3.803000000     0.040000000    -8.282000000
H    -3.456000000     0.626000000    -6.930000000
O    -1.566000000    -7.488000000    -3.779000000
H    -1.599000000    -6.531000000    -3.774000000
H    -0.695000000    -7.696000000    -4.117000000
O     0.787000000    -7.941000000    -4.839000000
H     1.282000000    -7.663000000    -4.068000000
H     0.704000000    -7.148000000    -5.369000000
O     1.208000000    -1.551000000    -6.309000000
H     1.228000000    -0.708000000    -5.854000000
H     1.033000000    -2.191000000    -5.619000000
