215
-1464.01345
C    -3.964000000    -2.385000000     1.823000000
H    -4.334000000    -1.363000000     1.824000000
C    -3.063000000    -2.856000000     2.730000000
C    -2.784000000    -4.220000000     2.829000000
H    -2.033000000    -4.604000000     3.515000000
C    -2.291000000    -1.804000000     3.450000000
O    -3.134000000    -0.867000000     4.097000000
H    -1.615000000    -1.369000000     2.699000000
O    -1.361000000    -2.404000000     4.292000000
C    -0.078000000    -1.942000000     4.384000000
C     0.983000000    -2.708000000     3.829000000
H     0.703000000    -3.592000000     3.262000000
C     2.269000000    -2.227000000     3.671000000
O     3.032000000    -2.906000000     2.765000000
C     2.568000000    -0.972000000     4.190000000
C     3.988000000    -0.390000000     4.063000000
H     4.339000000     0.143000000     4.949000000
C     4.140000000     0.421000000     2.779000000
C     3.838000000     1.777000000     2.746000000
H     3.546000000     2.184000000     3.711000000
H     4.650000000    -1.258000000     4.062000000
C     1.584000000    -0.187000000     4.795000000
H     1.816000000     0.841000000     5.063000000
C     0.312000000    -0.733000000     4.928000000
C    -0.745000000     0.170000000     5.597000000
H    -0.303000000     0.847000000     6.330000000
H    -1.385000000    -0.502000000     6.174000000
C    -1.623000000     0.937000000     4.642000000
C    -1.192000000     2.180000000     4.314000000
H    -0.369000000     2.578000000     4.903000000
C    -2.710000000     0.396000000     3.969000000
C    -3.428000000     1.202000000     3.055000000
H    -4.290000000     0.839000000     2.500000000
C    -2.889000000     2.482000000     2.696000000
O    -3.478000000     2.982000000     1.539000000
C    -2.726000000     3.171000000     0.302000000
C    -3.581000000     3.068000000    -0.961000000
C    -3.132000000     3.638000000    -2.165000000
H    -2.337000000     4.379000000    -2.146000000
C    -4.581000000     2.117000000    -1.026000000
H    -4.857000000     1.670000000    -0.074000000
O    -2.002000000     4.421000000     0.314000000
H    -1.932000000     2.415000000     0.218000000
C    -1.782000000     3.011000000     3.382000000
C    -1.178000000     4.406000000     3.080000000
H    -0.720000000     4.897000000     3.941000000
H    -1.968000000     5.128000000     2.864000000
C    -0.161000000     4.489000000     1.944000000
C     1.203000000     4.387000000     2.231000000
H     1.520000000     4.352000000     3.270000000
C    -0.589000000     4.439000000     0.609000000
C     0.282000000     4.437000000    -0.472000000
H    -0.117000000     4.503000000    -1.481000000
C     1.614000000     4.386000000    -0.205000000
O     2.538000000     4.229000000    -1.242000000
C     2.854000000     2.796000000    -1.479000000
C     2.971000000     2.491000000    -2.993000000
C     1.943000000     2.988000000    -3.807000000
H     1.235000000     3.659000000    -3.328000000
C     3.748000000     1.475000000    -3.502000000
H     4.600000000     1.070000000    -2.961000000
O     4.127000000     2.483000000    -0.875000000
H     2.057000000     2.180000000    -1.036000000
C     2.119000000     4.275000000     1.135000000
C     3.621000000     3.980000000     1.414000000
H     3.937000000     4.464000000     2.341000000
H     4.253000000     4.433000000     0.648000000
C     3.976000000     2.530000000     1.572000000
C     4.222000000     1.836000000     0.356000000
C     4.518000000     0.503000000     0.327000000
H     4.791000000    -0.039000000    -0.574000000
C     4.399000000    -0.218000000     1.539000000
O     4.398000000    -1.603000000     1.405000000
C     3.118000000    -2.282000000     1.483000000
H     2.337000000    -1.535000000     1.280000000
C     3.082000000    -3.347000000     0.333000000
C     2.014000000    -4.229000000     0.320000000
H     1.368000000    -4.275000000     1.193000000
C     4.003000000    -3.254000000    -0.768000000
H     4.794000000    -2.509000000    -0.815000000
C     3.816000000    -4.063000000    -1.903000000
O     4.560000000    -4.026000000    -3.090000000
C     2.721000000    -4.989000000    -1.894000000
H     2.427000000    -5.531000000    -2.790000000
C     1.805000000    -4.977000000    -0.805000000
O     0.622000000    -5.653000000    -0.933000000
C     0.059000000    -6.412000000     0.071000000
C    -1.205000000    -6.067000000     0.497000000
H    -1.664000000    -5.189000000     0.050000000
C     0.734000000    -7.488000000     0.652000000
H     1.736000000    -7.697000000     0.288000000
C     0.063000000    -8.228000000     1.643000000
H     0.612000000    -9.097000000     1.997000000
C    -1.213000000    -7.842000000     2.083000000
H    -1.672000000    -8.333000000     2.937000000
C    -1.860000000    -6.786000000     1.515000000
O    -3.134000000    -6.415000000     2.034000000
C    -3.513000000    -5.097000000     2.101000000
C    -4.480000000    -4.675000000     1.244000000
H    -4.988000000    -5.420000000     0.638000000
C    -4.728000000    -3.336000000     1.042000000
O    -5.803000000    -3.055000000     0.257000000
C    -6.474000000    -1.832000000     0.220000000
C    -5.950000000    -0.846000000    -0.614000000
H    -4.917000000    -0.882000000    -0.951000000
C    -7.755000000    -1.651000000     0.768000000
H    -8.111000000    -2.418000000     1.451000000
C    -8.508000000    -0.532000000     0.416000000
H    -9.423000000    -0.212000000     0.907000000
C    -8.032000000     0.333000000    -0.568000000
H    -8.566000000     1.171000000    -1.009000000
C    -6.774000000     0.177000000    -1.136000000
O    -6.410000000     1.053000000    -2.157000000
C    -5.242000000     1.811000000    -2.207000000
C    -4.928000000     2.599000000    -3.341000000
H    -5.584000000     2.508000000    -4.203000000
C    -3.881000000     3.502000000    -3.348000000
O    -3.580000000     4.182000000    -4.508000000
C    -2.336000000     4.610000000    -4.868000000
C    -1.374000000     3.682000000    -5.315000000
H    -1.654000000     2.633000000    -5.363000000
C    -1.948000000     5.951000000    -4.661000000
H    -2.616000000     6.710000000    -4.263000000
C    -0.638000000     6.327000000    -4.994000000
H    -0.395000000     7.367000000    -4.794000000
C     0.321000000     5.410000000    -5.403000000
H     1.330000000     5.717000000    -5.666000000
C    -0.047000000     4.032000000    -5.557000000
O     0.820000000     3.060000000    -5.976000000
C     1.896000000     2.667000000    -5.173000000
C     2.770000000     1.749000000    -5.683000000
H     2.778000000     1.493000000    -6.740000000
C     3.729000000     1.175000000    -4.834000000
O     4.523000000     0.285000000    -5.428000000
C     5.196000000    -0.752000000    -4.791000000
C     6.603000000    -0.691000000    -4.623000000
H     7.191000000     0.179000000    -4.905000000
C     7.275000000    -1.627000000    -3.903000000
H     8.360000000    -1.608000000    -3.836000000
C     6.586000000    -2.781000000    -3.441000000
H     7.059000000    -3.609000000    -2.919000000
C     5.184000000    -2.880000000    -3.572000000
C     4.500000000    -1.920000000    -4.222000000
H     3.414000000    -1.894000000    -4.192000000
C     0.712000000    -1.271000000    -1.862000000
H     1.238000000    -1.907000000    -2.569000000
C     1.478000000    -0.544000000    -0.899000000
H     2.558000000    -0.479000000    -1.001000000
C     0.899000000     0.173000000     0.166000000
H     1.512000000     0.727000000     0.775000000
C    -0.464000000     0.201000000     0.257000000
H    -0.961000000     0.712000000     1.077000000
C    -1.217000000    -0.517000000    -0.673000000
H    -2.297000000    -0.420000000    -0.598000000
C    -0.676000000    -1.308000000    -1.683000000
C    -1.628000000    -2.074000000    -2.608000000
O    -2.812000000    -1.957000000    -2.630000000
O    -1.059000000    -2.843000000    -3.406000000
O    -4.042000000    -7.059000000    -2.324000000
H    -3.412000000    -6.339000000    -2.369000000
H    -4.869000000    -6.671000000    -2.609000000
O    -6.243000000    -1.610000000    -4.610000000
H    -6.994000000    -2.201000000    -4.657000000
H    -5.991000000    -1.616000000    -3.686000000
O    -3.308000000    -2.273000000    -5.554000000
H    -2.884000000    -2.156000000    -4.704000000
H    -4.213000000    -2.499000000    -5.340000000
O     1.646000000    -8.144000000    -2.591000000
H     1.105000000    -7.798000000    -3.301000000
H     1.434000000    -9.078000000    -2.562000000
O    -1.535000000    -5.230000000    -6.409000000
H    -0.587000000    -5.221000000    -6.537000000
H    -1.737000000    -4.366000000    -6.051000000
O    -5.176000000    -4.833000000    -5.739000000
H    -5.272000000    -4.925000000    -4.791000000
H    -4.404000000    -5.358000000    -5.954000000
O    -7.034000000    -4.999000000    -2.943000000
H    -7.593000000    -4.653000000    -3.640000000
H    -6.397000000    -4.304000000    -2.780000000
O    -0.779000000    -0.230000000    -5.776000000
H    -1.449000000    -0.882000000    -5.571000000
H    -0.310000000    -0.102000000    -4.952000000
O     0.694000000     0.011000000    -8.109000000
H     1.207000000    -0.795000000    -8.173000000
H     0.285000000    -0.033000000    -7.245000000
O    -4.109000000    -8.794000000    -0.286000000
H    -5.047000000    -8.966000000    -0.208000000
H    -4.048000000    -8.087000000    -0.928000000
O    -3.882000000    -9.265000000    -3.777000000
H    -3.852000000    -8.562000000    -3.128000000
H    -3.382000000    -8.927000000    -4.520000000
O     2.509000000    -1.727000000    -6.512000000
H     2.819000000    -2.060000000    -7.354000000
H     3.085000000    -0.987000000    -6.321000000
O    -4.654000000    -3.890000000    -2.921000000
H    -4.067000000    -3.168000000    -2.695000000
H    -4.120000000    -4.676000000    -2.812000000
O     0.988000000    -3.891000000    -5.377000000
H     1.157000000    -3.137000000    -5.942000000
H     0.462000000    -3.540000000    -4.659000000
O    -3.488000000    -2.456000000    -8.363000000
H    -3.115000000    -1.619000000    -8.642000000
H    -3.392000000    -2.455000000    -7.411000000
O    -2.659000000    -7.649000000    -5.790000000
H    -2.025000000    -6.940000000    -5.903000000
H    -3.226000000    -7.587000000    -6.559000000
O    -2.005000000    -5.228000000    -2.578000000
H    -1.171000000    -5.693000000    -2.646000000
H    -1.824000000    -4.358000000    -2.935000000
O     1.309000000    -5.944000000    -7.048000000
H     1.330000000    -5.205000000    -6.440000000
H     1.825000000    -6.625000000    -6.615000000
O    -6.863000000     0.494000000    -6.291000000
H    -6.796000000     0.237000000    -7.210000000
H    -6.325000000    -0.145000000    -5.823000000
