215
-1444.51359
C    -4.577000000    -2.718000000     1.414000000
H    -4.955000000    -1.701000000     1.355000000
C    -3.395000000    -2.967000000     2.116000000
C    -2.819000000    -4.309000000     2.113000000
H    -1.851000000    -4.527000000     2.556000000
C    -2.664000000    -1.904000000     2.927000000
O    -3.551000000    -0.886000000     3.528000000
H    -2.096000000    -1.388000000     2.138000000
O    -1.641000000    -2.454000000     3.887000000
C    -0.459000000    -1.817000000     4.038000000
C     0.668000000    -2.485000000     3.630000000
H     0.597000000    -3.464000000     3.163000000
C     1.924000000    -1.963000000     3.782000000
O     2.971000000    -2.634000000     3.157000000
C     2.150000000    -0.704000000     4.399000000
C     3.538000000    -0.109000000     4.421000000
H     3.672000000     0.473000000     5.335000000
C     3.833000000     0.712000000     3.131000000
C     3.523000000     2.065000000     3.101000000
H     3.230000000     2.594000000     4.005000000
H     4.186000000    -0.981000000     4.528000000
C     0.986000000    -0.098000000     4.866000000
H     1.099000000     0.943000000     5.158000000
C    -0.325000000    -0.589000000     4.758000000
C    -1.511000000     0.202000000     5.321000000
H    -1.159000000     0.945000000     6.039000000
H    -2.200000000    -0.513000000     5.777000000
C    -2.207000000     0.979000000     4.240000000
C    -1.718000000     2.261000000     3.927000000
H    -0.807000000     2.629000000     4.391000000
C    -3.193000000     0.442000000     3.474000000
C    -3.850000000     1.196000000     2.416000000
H    -4.641000000     0.723000000     1.839000000
C    -3.333000000     2.496000000     2.186000000
O    -3.779000000     3.118000000     1.079000000
C    -2.846000000     3.288000000    -0.016000000
C    -3.495000000     2.942000000    -1.345000000
C    -3.251000000     3.698000000    -2.486000000
H    -2.717000000     4.642000000    -2.407000000
C    -4.255000000     1.776000000    -1.427000000
H    -4.306000000     1.144000000    -0.543000000
O    -2.282000000     4.651000000    -0.019000000
H    -2.034000000     2.551000000     0.070000000
C    -2.356000000     3.055000000     3.048000000
C    -1.829000000     4.485000000     2.813000000
H    -1.393000000     4.816000000     3.758000000
H    -2.546000000     5.267000000     2.555000000
C    -0.688000000     4.505000000     1.752000000
C     0.614000000     4.462000000     2.201000000
H     0.866000000     4.133000000     3.206000000
C    -0.937000000     4.720000000     0.395000000
C     0.123000000     4.703000000    -0.549000000
H    -0.155000000     4.721000000    -1.599000000
C     1.434000000     4.501000000    -0.088000000
O     2.396000000     4.241000000    -1.069000000
C     2.837000000     2.888000000    -1.096000000
C     2.839000000     2.257000000    -2.527000000
C     2.064000000     2.875000000    -3.529000000
H     1.435000000     3.718000000    -3.254000000
C     3.514000000     1.067000000    -2.808000000
H     4.099000000     0.506000000    -2.084000000
O     4.164000000     2.780000000    -0.429000000
H     2.153000000     2.346000000    -0.426000000
C     1.697000000     4.442000000     1.282000000
C     3.054000000     4.214000000     1.888000000
H     3.091000000     4.555000000     2.925000000
H     3.607000000     4.904000000     1.249000000
C     3.496000000     2.781000000     1.873000000
C     4.073000000     2.168000000     0.762000000
C     4.470000000     0.820000000     0.812000000
H     4.865000000     0.307000000    -0.062000000
C     4.231000000     0.085000000     1.993000000
O     4.456000000    -1.182000000     1.945000000
C     3.316000000    -2.096000000     1.860000000
H     2.495000000    -1.494000000     1.442000000
C     3.473000000    -3.101000000     0.757000000
C     2.442000000    -4.014000000     0.489000000
H     1.469000000    -3.921000000     0.966000000
C     4.672000000    -3.296000000     0.094000000
H     5.441000000    -2.548000000     0.268000000
C     4.772000000    -4.236000000    -0.928000000
O     5.783000000    -4.207000000    -1.904000000
C     3.671000000    -5.122000000    -1.208000000
H     3.716000000    -5.878000000    -1.988000000
C     2.556000000    -4.974000000    -0.473000000
O     1.456000000    -5.774000000    -0.767000000
C     0.678000000    -6.289000000     0.223000000
C    -0.719000000    -6.162000000     0.182000000
H    -1.276000000    -5.633000000    -0.588000000
C     1.237000000    -6.974000000     1.318000000
H     2.294000000    -7.195000000     1.447000000
C     0.483000000    -7.642000000     2.244000000
H     0.888000000    -8.293000000     3.015000000
C    -0.878000000    -7.439000000     2.224000000
H    -1.495000000    -7.926000000     2.975000000
C    -1.503000000    -6.677000000     1.217000000
O    -2.924000000    -6.514000000     1.192000000
C    -3.486000000    -5.304000000     1.354000000
C    -4.667000000    -5.056000000     0.696000000
H    -5.219000000    -5.799000000     0.126000000
C    -5.215000000    -3.729000000     0.702000000
O    -6.297000000    -3.515000000    -0.069000000
C    -6.574000000    -2.203000000    -0.372000000
C    -5.838000000    -1.637000000    -1.388000000
H    -4.975000000    -2.157000000    -1.794000000
C    -7.535000000    -1.451000000     0.290000000
H    -8.120000000    -1.856000000     1.112000000
C    -7.868000000    -0.222000000    -0.104000000
H    -8.823000000     0.202000000     0.196000000
C    -7.205000000     0.379000000    -1.162000000
H    -7.524000000     1.345000000    -1.545000000
C    -6.163000000    -0.333000000    -1.771000000
O    -5.519000000     0.274000000    -2.805000000
C    -4.745000000     1.412000000    -2.668000000
C    -4.506000000     2.239000000    -3.832000000
H    -4.850000000     1.888000000    -4.802000000
C    -3.733000000     3.391000000    -3.768000000
O    -3.365000000     4.143000000    -4.829000000
C    -2.045000000     4.505000000    -5.120000000
C    -1.038000000     3.597000000    -5.322000000
H    -1.321000000     2.559000000    -5.167000000
C    -1.709000000     5.810000000    -5.330000000
H    -2.323000000     6.633000000    -4.974000000
C    -0.440000000     6.178000000    -5.796000000
H    -0.218000000     7.219000000    -6.016000000
C     0.529000000     5.240000000    -6.100000000
H     1.530000000     5.489000000    -6.443000000
C     0.230000000     3.926000000    -5.720000000
O     1.238000000     2.963000000    -5.840000000
C     1.992000000     2.397000000    -4.855000000
C     2.777000000     1.270000000    -5.135000000
H     2.692000000     0.834000000    -6.127000000
C     3.506000000     0.600000000    -4.120000000
O     4.175000000    -0.510000000    -4.621000000
C     5.174000000    -1.143000000    -3.878000000
C     6.419000000    -0.553000000    -3.780000000
H     6.599000000     0.397000000    -4.277000000
C     7.469000000    -1.134000000    -3.099000000
H     8.504000000    -0.809000000    -3.038000000
C     7.229000000    -2.370000000    -2.548000000
H     8.105000000    -2.835000000    -2.104000000
C     6.021000000    -3.011000000    -2.597000000
C     4.959000000    -2.426000000    -3.302000000
H     3.977000000    -2.892000000    -3.292000000
C     0.879000000    -1.342000000    -1.685000000
H     1.479000000    -1.864000000    -2.426000000
C     1.537000000    -0.659000000    -0.680000000
H     2.615000000    -0.788000000    -0.639000000
C     0.735000000    -0.011000000     0.267000000
H     1.264000000     0.642000000     1.021000000
C    -0.647000000    -0.060000000     0.264000000
H    -1.244000000     0.453000000     1.014000000
C    -1.268000000    -0.867000000    -0.742000000
H    -2.349000000    -0.981000000    -0.738000000
C    -0.503000000    -1.481000000    -1.700000000
C    -1.112000000    -2.377000000    -2.802000000
O    -2.298000000    -2.564000000    -2.860000000
O    -0.409000000    -2.768000000    -3.729000000
O    -1.407000000    -8.989000000    -1.522000000
H    -0.478000000    -8.776000000    -1.613000000
H    -1.861000000    -8.268000000    -1.959000000
O    -3.080000000    -0.554000000    -4.925000000
H    -3.682000000    -0.030000000    -4.396000000
H    -2.858000000    -1.300000000    -4.367000000
O    -2.742000000    -4.476000000    -4.930000000
H    -2.160000000    -3.864000000    -4.482000000
H    -3.430000000    -4.664000000    -4.291000000
O    -1.971000000    -3.633000000    -8.727000000
H    -2.608000000    -3.078000000    -8.277000000
H    -1.407000000    -3.965000000    -8.029000000
O     0.375000000    -4.003000000    -6.594000000
H    -0.008000000    -4.079000000    -5.720000000
H     1.276000000    -3.720000000    -6.436000000
O    -5.845000000    -5.636000000    -7.324000000
H    -6.119000000    -5.569000000    -6.409000000
H    -4.921000000    -5.881000000    -7.280000000
O    -5.978000000    -5.216000000    -4.246000000
H    -6.807000000    -4.739000000    -4.259000000
H    -5.655000000    -5.111000000    -3.351000000
O    -0.050000000    -0.651000000    -5.063000000
H    -0.254000000    -1.539000000    -4.770000000
H    -0.220000000    -0.101000000    -4.299000000
O     1.504000000    -7.281000000    -4.987000000
H     2.121000000    -7.768000000    -4.440000000
H     1.103000000    -6.649000000    -4.391000000
O     0.454000000    -0.257000000    -7.801000000
H     0.222000000    -1.184000000    -7.742000000
H     0.243000000     0.098000000    -6.937000000
O     2.884000000    -2.536000000    -6.410000000
H     2.888000000    -1.583000000    -6.317000000
H     3.529000000    -2.713000000    -7.093000000
O    -4.097000000    -4.555000000    -2.380000000
H    -3.569000000    -3.756000000    -2.398000000
H    -4.329000000    -4.667000000    -1.459000000
O     0.862000000    -5.465000000    -3.237000000
H     1.181000000    -5.534000000    -2.337000000
H     0.641000000    -4.539000000    -3.342000000
O    -3.602000000    -2.531000000    -6.863000000
H    -3.632000000    -3.370000000    -6.405000000
H    -3.251000000    -1.918000000    -6.217000000
O    -2.176000000    -7.627000000    -5.468000000
H    -2.229000000    -6.671000000    -5.495000000
H    -2.200000000    -7.894000000    -6.387000000
O    -2.649000000     1.622000000    -7.412000000
H    -3.292000000     2.263000000    -7.714000000
H    -2.828000000     1.526000000    -6.476000000
O    -2.039000000    -6.791000000    -2.822000000
H    -2.537000000    -5.986000000    -2.963000000
H    -1.840000000    -7.107000000    -3.704000000
O     0.602000000    -6.694000000    -7.766000000
H     0.325000000    -5.844000000    -7.423000000
H     1.032000000    -7.123000000    -7.027000000
O    -5.723000000     0.094000000    -6.660000000
H    -6.165000000    -0.181000000    -7.463000000
H    -5.122000000    -0.623000000    -6.459000000
