215
-1457.61347
C    -5.424000000    -1.186000000     1.465000000
H    -5.630000000    -0.128000000     1.321000000
C    -4.406000000    -1.678000000     2.226000000
C    -4.088000000    -3.045000000     2.199000000
H    -3.227000000    -3.375000000     2.774000000
C    -3.413000000    -0.769000000     2.899000000
O    -3.927000000     0.558000000     3.263000000
H    -2.683000000    -0.668000000     2.082000000
O    -2.819000000    -1.419000000     4.064000000
C    -1.422000000    -1.197000000     4.197000000
C    -0.574000000    -2.158000000     3.757000000
H    -0.917000000    -3.075000000     3.285000000
C     0.762000000    -1.950000000     3.792000000
O     1.552000000    -2.943000000     3.242000000
C     1.278000000    -0.809000000     4.377000000
C     2.776000000    -0.662000000     4.599000000
H     2.902000000    -0.118000000     5.537000000
C     3.519000000    -0.051000000     3.386000000
C     3.650000000     1.345000000     3.184000000
H     3.351000000     2.102000000     3.904000000
H     3.241000000    -1.598000000     4.915000000
C     0.413000000     0.160000000     4.931000000
H     0.787000000     1.075000000     5.384000000
C    -0.960000000     0.018000000     4.765000000
C    -1.927000000     1.163000000     5.090000000
H    -1.539000000     1.768000000     5.912000000
H    -2.843000000     0.701000000     5.464000000
C    -2.109000000     2.035000000     3.802000000
C    -1.322000000     3.120000000     3.627000000
H    -0.463000000     3.258000000     4.278000000
C    -3.158000000     1.708000000     3.002000000
C    -3.315000000     2.292000000     1.787000000
H    -4.042000000     1.886000000     1.088000000
C    -2.614000000     3.490000000     1.542000000
O    -2.722000000     4.068000000     0.300000000
C    -1.679000000     3.754000000    -0.656000000
C    -2.296000000     3.433000000    -2.077000000
C    -1.701000000     3.695000000    -3.329000000
H    -0.754000000     4.226000000    -3.279000000
C    -3.345000000     2.537000000    -2.096000000
H    -3.774000000     2.081000000    -1.207000000
O    -0.696000000     4.797000000    -0.729000000
H    -1.115000000     2.846000000    -0.397000000
C    -1.548000000     3.832000000     2.459000000
C    -0.632000000     5.014000000     2.210000000
H    -0.294000000     5.460000000     3.148000000
H    -1.308000000     5.759000000     1.785000000
C     0.601000000     4.749000000     1.346000000
C     1.728000000     4.228000000     1.963000000
H     1.896000000     4.257000000     3.037000000
C     0.518000000     4.661000000    -0.043000000
C     1.569000000     4.244000000    -0.855000000
H     1.518000000     4.115000000    -1.933000000
C     2.751000000     3.859000000    -0.216000000
O     3.781000000     3.412000000    -0.991000000
C     3.977000000     1.977000000    -1.075000000
C     4.089000000     1.453000000    -2.521000000
C     3.588000000     2.233000000    -3.646000000
H     3.199000000     3.244000000    -3.555000000
C     4.359000000     0.092000000    -2.766000000
H     4.642000000    -0.524000000    -1.916000000
O     4.977000000     1.535000000    -0.224000000
H     3.046000000     1.489000000    -0.753000000
C     2.863000000     3.912000000     1.214000000
C     4.094000000     3.406000000     1.887000000
H     4.246000000     3.830000000     2.881000000
H     4.891000000     3.672000000     1.188000000
C     4.118000000     1.886000000     2.012000000
C     4.598000000     1.119000000     0.987000000
C     4.372000000    -0.284000000     1.150000000
H     4.644000000    -0.954000000     0.338000000
C     3.886000000    -0.848000000     2.324000000
O     3.649000000    -2.188000000     2.300000000
C     2.269000000    -2.699000000     2.033000000
H     1.787000000    -1.886000000     1.471000000
C     2.247000000    -3.971000000     1.180000000
C     1.128000000    -4.813000000     1.186000000
H     0.338000000    -4.579000000     1.895000000
C     3.172000000    -4.177000000     0.180000000
H     4.058000000    -3.555000000     0.086000000
C     3.151000000    -5.327000000    -0.632000000
O     4.173000000    -5.641000000    -1.505000000
C     2.138000000    -6.257000000    -0.479000000
H     2.109000000    -7.238000000    -0.947000000
C     1.093000000    -5.996000000     0.420000000
O    -0.090000000    -6.781000000     0.455000000
C    -1.124000000    -6.754000000     1.397000000
C    -2.310000000    -6.139000000     0.952000000
H    -2.342000000    -5.866000000    -0.100000000
C    -1.008000000    -7.163000000     2.696000000
H    -0.188000000    -7.723000000     3.138000000
C    -2.061000000    -6.898000000     3.589000000
H    -2.022000000    -7.132000000     4.650000000
C    -3.174000000    -6.171000000     3.187000000
H    -3.903000000    -5.931000000     3.958000000
C    -3.353000000    -5.826000000     1.857000000
O    -4.468000000    -5.277000000     1.348000000
C    -4.794000000    -3.919000000     1.416000000
C    -5.834000000    -3.422000000     0.637000000
H    -6.469000000    -4.020000000    -0.012000000
C    -6.089000000    -2.055000000     0.631000000
O    -7.122000000    -1.536000000    -0.129000000
C    -7.048000000    -0.336000000    -0.798000000
C    -5.955000000    -0.169000000    -1.702000000
H    -5.393000000    -1.045000000    -2.018000000
C    -7.884000000     0.734000000    -0.518000000
H    -8.705000000     0.683000000     0.193000000
C    -7.723000000     1.919000000    -1.208000000
H    -8.354000000     2.746000000    -0.891000000
C    -6.682000000     2.132000000    -2.075000000
H    -6.580000000     3.068000000    -2.618000000
C    -5.831000000     1.034000000    -2.318000000
O    -4.881000000     1.165000000    -3.266000000
C    -3.920000000     2.136000000    -3.322000000
C    -3.395000000     2.507000000    -4.519000000
H    -3.938000000     2.183000000    -5.403000000
C    -2.240000000     3.220000000    -4.585000000
O    -1.617000000     3.668000000    -5.745000000
C    -0.292000000     4.012000000    -5.812000000
C     0.674000000     3.069000000    -5.857000000
H     0.468000000     2.002000000    -5.888000000
C     0.024000000     5.349000000    -5.709000000
H    -0.740000000     6.119000000    -5.638000000
C     1.353000000     5.716000000    -5.852000000
H     1.553000000     6.756000000    -6.100000000
C     2.357000000     4.753000000    -5.882000000
H     3.403000000     5.040000000    -5.945000000
C     2.024000000     3.391000000    -5.866000000
O     3.002000000     2.428000000    -5.877000000
C     3.474000000     1.639000000    -4.882000000
C     3.796000000     0.329000000    -5.130000000
H     3.563000000    -0.125000000    -6.090000000
C     4.195000000    -0.434000000    -4.083000000
O     4.236000000    -1.772000000    -4.254000000
C     4.969000000    -2.670000000    -3.378000000
C     6.288000000    -2.477000000    -3.025000000
H     6.838000000    -1.624000000    -3.415000000
C     7.013000000    -3.365000000    -2.136000000
H     8.015000000    -3.164000000    -1.766000000
C     6.279000000    -4.470000000    -1.597000000
H     6.655000000    -5.120000000    -0.811000000
C     4.981000000    -4.611000000    -2.014000000
C     4.296000000    -3.739000000    -2.920000000
H     3.243000000    -3.837000000    -3.171000000
C     0.648000000    -0.610000000    -1.755000000
H     1.193000000    -0.856000000    -2.662000000
C     1.464000000    -0.237000000    -0.677000000
H     2.544000000    -0.358000000    -0.692000000
C     0.869000000     0.253000000     0.517000000
H     1.504000000     0.608000000     1.330000000
C    -0.459000000     0.289000000     0.588000000
H    -0.938000000     0.730000000     1.458000000
C    -1.273000000    -0.058000000    -0.517000000
H    -2.354000000    -0.171000000    -0.518000000
C    -0.696000000    -0.554000000    -1.684000000
C    -1.559000000    -0.978000000    -2.926000000
O    -2.753000000    -1.019000000    -2.818000000
O    -1.105000000    -1.263000000    -4.043000000
O    -5.756000000     0.513000000    -6.438000000
H    -5.513000000     0.565000000    -7.362000000
H    -6.633000000     0.896000000    -6.399000000
O    -4.736000000    -1.689000000    -4.765000000
H    -4.119000000    -1.471000000    -4.066000000
H    -5.072000000    -0.844000000    -5.061000000
O    -3.502000000    -2.849000000    -7.562000000
H    -3.125000000    -2.013000000    -7.288000000
H    -3.166000000    -3.482000000    -6.927000000
O    -1.810000000    -5.845000000    -8.481000000
H    -1.677000000    -6.764000000    -8.245000000
H    -1.448000000    -5.354000000    -7.743000000
O    -7.288000000    -2.706000000    -4.892000000
H    -6.452000000    -2.434000000    -5.270000000
H    -7.735000000    -3.162000000    -5.605000000
O    -2.328000000    -0.403000000    -6.474000000
H    -3.201000000    -0.145000000    -6.180000000
H    -1.907000000    -0.760000000    -5.692000000
O    -0.405000000     0.589000000    -8.220000000
H     0.170000000    -0.133000000    -8.474000000
H    -1.145000000     0.165000000    -7.785000000
O    -2.388000000    -3.486000000    -4.605000000
H    -3.299000000    -3.206000000    -4.690000000
H    -1.927000000    -2.709000000    -4.287000000
O    -5.852000000    -4.269000000    -7.497000000
H    -5.728000000    -5.008000000    -8.093000000
H    -4.991000000    -3.853000000    -7.449000000
O    -4.516000000    -6.724000000    -1.577000000
H    -5.002000000    -6.069000000    -2.079000000
H    -4.214000000    -6.254000000    -0.800000000
O    -3.543000000    -3.208000000    -1.536000000
H    -3.564000000    -2.465000000    -2.138000000
H    -3.020000000    -2.902000000    -0.795000000
O     1.629000000    -4.541000000    -4.761000000
H     1.225000000    -3.677000000    -4.690000000
H     2.494000000    -4.371000000    -5.135000000
O    -5.844000000    -4.625000000    -2.815000000
H    -5.065000000    -4.105000000    -2.618000000
H    -6.564000000    -3.993000000    -2.796000000
O    -2.888000000    -7.078000000    -5.636000000
H    -2.050000000    -7.115000000    -6.096000000
H    -2.652000000    -6.992000000    -4.713000000
O    -0.139000000    -2.581000000    -8.361000000
H    -0.788000000    -3.282000000    -8.411000000
H     0.366000000    -2.778000000    -7.572000000
O    -0.710000000    -4.737000000    -6.420000000
H     0.161000000    -4.920000000    -6.066000000
H    -1.203000000    -4.393000000    -5.675000000
O    -2.778000000     2.405000000    -8.648000000
H    -1.994000000     1.895000000    -8.446000000
H    -3.020000000     2.811000000    -7.815000000
O    -1.809000000    -5.910000000    -2.934000000
H    -1.485000000    -5.594000000    -2.090000000
H    -2.048000000    -5.116000000    -3.411000000
O     0.830000000    -2.057000000    -5.634000000
H     1.054000000    -1.322000000    -6.204000000
H     0.001000000    -1.801000000    -5.228000000
