215
-1462.41497
C    -4.921000000    -1.319000000     1.151000000
H    -5.322000000    -0.322000000     1.312000000
C    -3.769000000    -1.796000000     1.802000000
C    -3.387000000    -3.088000000     1.578000000
H    -2.385000000    -3.391000000     1.871000000
C    -2.883000000    -0.881000000     2.686000000
O    -3.659000000     0.141000000     3.318000000
H    -2.085000000    -0.409000000     2.095000000
O    -2.340000000    -1.610000000     3.841000000
C    -1.024000000    -1.287000000     4.130000000
C    -0.145000000    -2.199000000     3.683000000
H    -0.454000000    -3.113000000     3.181000000
C     1.185000000    -1.951000000     3.862000000
O     2.068000000    -2.885000000     3.395000000
C     1.645000000    -0.819000000     4.572000000
C     3.176000000    -0.447000000     4.734000000
H     3.454000000     0.283000000     5.497000000
C     3.658000000     0.103000000     3.399000000
C     3.567000000     1.462000000     3.164000000
H     3.084000000     2.090000000     3.908000000
H     3.714000000    -1.371000000     4.956000000
C     0.660000000     0.050000000     5.145000000
H     1.008000000     0.972000000     5.604000000
C    -0.679000000    -0.103000000     4.870000000
C    -1.677000000     1.005000000     5.227000000
H    -1.146000000     1.634000000     5.944000000
H    -2.529000000     0.626000000     5.795000000
C    -2.125000000     1.830000000     4.073000000
C    -1.400000000     3.002000000     3.690000000
H    -0.504000000     3.224000000     4.265000000
C    -3.151000000     1.445000000     3.176000000
C    -3.545000000     2.164000000     2.068000000
H    -4.336000000     1.807000000     1.413000000
C    -2.812000000     3.298000000     1.775000000
O    -3.057000000     3.808000000     0.480000000
C    -1.995000000     3.653000000    -0.506000000
C    -2.700000000     3.363000000    -1.874000000
C    -2.183000000     3.924000000    -3.001000000
H    -1.217000000     4.422000000    -3.025000000
C    -3.870000000     2.606000000    -1.934000000
H    -4.303000000     2.240000000    -1.007000000
O    -1.157000000     4.734000000    -0.646000000
H    -1.435000000     2.773000000    -0.157000000
C    -1.786000000     3.756000000     2.581000000
C    -0.971000000     4.940000000     2.145000000
H    -0.557000000     5.398000000     3.046000000
H    -1.603000000     5.691000000     1.666000000
C     0.203000000     4.607000000     1.367000000
C     1.443000000     4.298000000     1.905000000
H     1.522000000     4.422000000     2.982000000
C     0.082000000     4.639000000    -0.056000000
C     1.083000000     4.039000000    -0.786000000
H     0.939000000     3.856000000    -1.848000000
C     2.312000000     3.814000000    -0.241000000
O     3.248000000     3.326000000    -1.115000000
C     3.525000000     1.902000000    -1.140000000
C     3.594000000     1.407000000    -2.573000000
C     2.671000000     1.823000000    -3.492000000
H     1.815000000     2.457000000    -3.278000000
C     4.494000000     0.411000000    -2.871000000
H     5.216000000     0.012000000    -2.163000000
O     4.694000000     1.603000000    -0.335000000
H     2.756000000     1.357000000    -0.572000000
C     2.482000000     3.892000000     1.137000000
C     3.862000000     3.508000000     1.792000000
H     3.983000000     4.082000000     2.713000000
H     4.693000000     3.677000000     1.104000000
C     3.933000000     2.015000000     1.933000000
C     4.423000000     1.187000000     0.920000000
C     4.494000000    -0.187000000     1.073000000
H     4.763000000    -0.876000000     0.277000000
C     4.128000000    -0.665000000     2.343000000
O     4.034000000    -2.105000000     2.476000000
C     2.720000000    -2.647000000     2.173000000
H     2.149000000    -1.895000000     1.609000000
C     2.618000000    -3.795000000     1.226000000
C     1.842000000    -4.917000000     1.528000000
H     1.243000000    -4.914000000     2.435000000
C     3.353000000    -3.816000000     0.051000000
H     3.972000000    -2.978000000    -0.260000000
C     3.369000000    -4.949000000    -0.727000000
O     4.182000000    -5.095000000    -1.878000000
C     2.650000000    -6.155000000    -0.441000000
H     2.518000000    -7.009000000    -1.100000000
C     1.820000000    -6.073000000     0.674000000
O     0.862000000    -7.036000000     0.891000000
C    -0.397000000    -6.831000000     1.424000000
C    -1.424000000    -6.276000000     0.673000000
H    -1.322000000    -5.991000000    -0.371000000
C    -0.579000000    -7.009000000     2.743000000
H     0.208000000    -7.572000000     3.238000000
C    -1.752000000    -6.578000000     3.387000000
H    -1.863000000    -6.876000000     4.426000000
C    -2.788000000    -6.009000000     2.690000000
H    -3.762000000    -5.670000000     3.032000000
C    -2.632000000    -5.893000000     1.309000000
O    -3.591000000    -5.221000000     0.491000000
C    -4.054000000    -3.975000000     0.705000000
C    -5.306000000    -3.573000000     0.122000000
H    -5.958000000    -4.275000000    -0.391000000
C    -5.696000000    -2.179000000     0.301000000
O    -7.023000000    -1.762000000    -0.157000000
C    -7.188000000    -0.497000000    -0.687000000
C    -6.356000000    -0.022000000    -1.707000000
H    -5.562000000    -0.620000000    -2.147000000
C    -8.273000000     0.229000000    -0.243000000
H    -8.952000000    -0.339000000     0.389000000
C    -8.556000000     1.501000000    -0.750000000
H    -9.479000000     2.026000000    -0.516000000
C    -7.685000000     1.995000000    -1.758000000
H    -7.890000000     2.994000000    -2.133000000
C    -6.536000000     1.307000000    -2.210000000
O    -5.696000000     1.716000000    -3.255000000
C    -4.561000000     2.499000000    -3.120000000
C    -3.994000000     2.983000000    -4.300000000
H    -4.492000000     2.817000000    -5.251000000
C    -2.775000000     3.664000000    -4.216000000
O    -2.311000000     4.234000000    -5.400000000
C    -0.947000000     4.167000000    -5.611000000
C    -0.332000000     2.933000000    -5.421000000
H    -0.792000000     2.104000000    -4.889000000
C    -0.318000000     5.307000000    -6.045000000
H    -0.952000000     6.170000000    -6.231000000
C     1.068000000     5.296000000    -6.198000000
H     1.674000000     6.175000000    -6.401000000
C     1.711000000     4.047000000    -6.003000000
H     2.797000000     4.001000000    -6.032000000
C     1.003000000     2.844000000    -5.713000000
O     1.669000000     1.600000000    -5.612000000
C     2.729000000     1.251000000    -4.764000000
C     3.771000000     0.372000000    -5.141000000
H     3.777000000    -0.069000000    -6.135000000
C     4.614000000    -0.169000000    -4.151000000
O     5.536000000    -1.187000000    -4.371000000
C     5.804000000    -2.144000000    -3.392000000
C     7.120000000    -2.251000000    -2.817000000
H     7.919000000    -1.605000000    -3.172000000
C     7.397000000    -3.231000000    -1.844000000
H     8.401000000    -3.345000000    -1.444000000
C     6.375000000    -4.188000000    -1.560000000
H     6.563000000    -5.065000000    -0.945000000
C     5.134000000    -4.140000000    -2.231000000
C     4.849000000    -3.188000000    -3.188000000
H     3.900000000    -3.187000000    -3.719000000
C     0.426000000    -0.920000000    -2.222000000
H     1.114000000    -1.221000000    -3.008000000
C     0.824000000    -0.768000000    -0.903000000
H     1.858000000    -0.930000000    -0.610000000
C    -0.101000000    -0.287000000     0.015000000
H     0.241000000    -0.244000000     1.014000000
C    -1.462000000    -0.027000000    -0.350000000
H    -2.125000000     0.455000000     0.364000000
C    -1.837000000    -0.242000000    -1.652000000
H    -2.847000000    -0.180000000    -2.049000000
C    -0.907000000    -0.706000000    -2.623000000
C    -1.293000000    -0.845000000    -4.075000000
O    -2.328000000    -0.514000000    -4.515000000
O    -0.485000000    -1.554000000    -4.762000000
O    -5.610000000    -3.697000000    -6.557000000
H    -5.201000000    -3.332000000    -5.773000000
H    -5.934000000    -2.934000000    -7.035000000
O    -2.017000000    -3.788000000    -4.803000000
H    -1.254000000    -4.346000000    -4.650000000
H    -1.662000000    -2.899000000    -4.829000000
O     3.684000000    -4.460000000    -5.797000000
H     3.661000000    -4.192000000    -6.716000000
H     2.947000000    -4.001000000    -5.395000000
O     1.522000000    -3.307000000    -4.503000000
H     0.901000000    -2.640000000    -4.797000000
H     1.063000000    -3.768000000    -3.801000000
O    -1.049000000    -1.327000000   -10.229000000
H    -1.670000000    -1.733000000   -10.834000000
H    -1.224000000    -1.750000000    -9.388000000
O    -0.336000000     1.096000000    -8.521000000
H    -0.719000000     0.835000000    -9.358000000
H     0.061000000     0.295000000    -8.179000000
O    -3.900000000     0.429000000    -9.454000000
H    -3.168000000     0.691000000   -10.013000000
H    -3.538000000     0.432000000    -8.568000000
O     0.373000000    -4.516000000    -2.453000000
H     0.033000000    -5.404000000    -2.568000000
H     0.554000000    -4.449000000    -1.516000000
O    -6.633000000    -4.908000000    -2.795000000
H    -5.703000000    -4.957000000    -3.018000000
H    -7.065000000    -5.455000000    -3.451000000
O    -4.759000000    -2.245000000    -4.106000000
H    -3.939000000    -1.753000000    -4.071000000
H    -4.534000000    -3.110000000    -3.762000000
O    -5.559000000     0.611000000    -6.107000000
H    -5.456000000    -0.015000000    -5.390000000
H    -4.677000000     0.953000000    -6.254000000
O    -7.282000000    -1.269000000    -7.580000000
H    -6.521000000    -0.833000000    -7.196000000
H    -7.651000000    -0.622000000    -8.181000000
O     0.421000000    -1.567000000    -7.551000000
H     0.067000000    -1.601000000    -6.663000000
H     1.108000000    -2.233000000    -7.561000000
O    -4.358000000    -2.066000000    -8.641000000
H    -5.118000000    -2.364000000    -9.142000000
H    -4.146000000    -1.211000000    -9.014000000
O    -0.310000000    -5.412000000    -8.198000000
H    -1.043000000    -4.799000000    -8.136000000
H    -0.436000000    -5.850000000    -9.040000000
O    -2.499000000    -3.663000000    -7.618000000
H    -3.113000000    -2.940000000    -7.748000000
H    -2.395000000    -3.722000000    -6.668000000
O    -4.023000000    -4.808000000    -3.408000000
H    -3.902000000    -5.753000000    -3.316000000
H    -3.316000000    -4.531000000    -3.991000000
O    -0.601000000    -6.914000000    -2.763000000
H    -0.191000000    -7.075000000    -3.613000000
H    -1.536000000    -6.847000000    -2.958000000
O    -2.824000000     0.778000000    -6.796000000
H    -1.967000000     1.104000000    -7.071000000
H    -2.650000000     0.306000000    -5.982000000
