215
-1453.53824
C    -5.059000000    -0.646000000     1.167000000
H    -5.020000000     0.438000000     1.088000000
C    -4.229000000    -1.228000000     2.104000000
C    -4.400000000    -2.603000000     2.327000000
H    -3.791000000    -3.162000000     3.033000000
C    -3.145000000    -0.476000000     2.871000000
O    -3.578000000     0.903000000     3.302000000
H    -2.359000000    -0.380000000     2.107000000
O    -2.779000000    -1.283000000     4.072000000
C    -1.373000000    -1.287000000     4.335000000
C    -0.685000000    -2.447000000     3.887000000
H    -1.162000000    -3.324000000     3.456000000
C     0.682000000    -2.394000000     3.921000000
O     1.311000000    -3.469000000     3.331000000
C     1.338000000    -1.329000000     4.541000000
C     2.875000000    -1.256000000     4.638000000
H     3.286000000    -0.697000000     5.481000000
C     3.460000000    -0.708000000     3.361000000
C     3.669000000     0.713000000     3.235000000
H     3.396000000     1.466000000     3.969000000
H     3.313000000    -2.255000000     4.670000000
C     0.683000000    -0.243000000     4.974000000
H     1.266000000     0.608000000     5.315000000
C    -0.665000000    -0.155000000     4.831000000
C    -1.415000000     1.146000000     5.200000000
H    -1.051000000     1.755000000     6.031000000
H    -2.442000000     0.886000000     5.464000000
C    -1.654000000     2.128000000     3.982000000
C    -0.728000000     3.110000000     3.754000000
H     0.162000000     3.005000000     4.369000000
C    -2.720000000     1.924000000     3.101000000
C    -2.873000000     2.748000000     1.986000000
H    -3.658000000     2.487000000     1.281000000
C    -1.905000000     3.732000000     1.753000000
O    -2.010000000     4.494000000     0.588000000
C    -1.138000000     4.075000000    -0.508000000
C    -1.918000000     3.924000000    -1.820000000
C    -1.202000000     3.862000000    -2.986000000
H    -0.121000000     3.971000000    -2.987000000
C    -3.317000000     3.672000000    -1.850000000
H    -3.881000000     3.903000000    -0.950000000
O    -0.038000000     5.035000000    -0.512000000
H    -0.768000000     3.052000000    -0.344000000
C    -0.937000000     4.014000000     2.733000000
C     0.074000000     5.146000000     2.457000000
H     0.464000000     5.563000000     3.388000000
H    -0.425000000     5.950000000     1.912000000
C     1.233000000     4.677000000     1.468000000
C     2.321000000     4.043000000     1.969000000
H     2.303000000     3.873000000     3.042000000
C     1.187000000     4.755000000     0.071000000
C     2.165000000     4.234000000    -0.773000000
H     2.028000000     4.191000000    -1.851000000
C     3.230000000     3.562000000    -0.185000000
O     4.160000000     2.923000000    -0.921000000
C     3.996000000     1.534000000    -1.114000000
C     4.081000000     1.142000000    -2.610000000
C     3.750000000     2.019000000    -3.588000000
H     3.481000000     3.047000000    -3.361000000
C     4.452000000    -0.175000000    -2.842000000
H     4.690000000    -0.820000000    -2.000000000
O     4.922000000     0.793000000    -0.230000000
H     2.934000000     1.334000000    -0.912000000
C     3.313000000     3.444000000     1.192000000
C     4.398000000     2.753000000     1.941000000
H     4.544000000     3.281000000     2.886000000
H     5.330000000     2.906000000     1.393000000
C     4.262000000     1.218000000     2.097000000
C     4.618000000     0.317000000     1.073000000
C     4.337000000    -1.030000000     1.182000000
H     4.331000000    -1.571000000     0.239000000
C     3.830000000    -1.549000000     2.311000000
O     3.379000000    -2.903000000     2.315000000
C     1.986000000    -3.196000000     2.077000000
H     1.498000000    -2.313000000     1.639000000
C     1.589000000    -4.244000000     1.027000000
C     0.304000000    -4.827000000     0.936000000
H    -0.470000000    -4.515000000     1.633000000
C     2.561000000    -4.654000000     0.058000000
H     3.557000000    -4.227000000     0.146000000
C     2.327000000    -5.578000000    -0.965000000
O     3.278000000    -5.993000000    -1.932000000
C     1.092000000    -6.224000000    -0.890000000
H     1.051000000    -7.104000000    -1.526000000
C     0.080000000    -5.824000000    -0.027000000
O    -1.159000000    -6.489000000    -0.087000000
C    -2.220000000    -6.540000000     0.779000000
C    -3.119000000    -5.431000000     0.921000000
H    -3.181000000    -4.693000000     0.125000000
C    -2.281000000    -7.652000000     1.642000000
H    -1.432000000    -8.329000000     1.685000000
C    -3.282000000    -7.697000000     2.572000000
H    -3.321000000    -8.496000000     3.308000000
C    -4.268000000    -6.725000000     2.597000000
H    -5.154000000    -6.930000000     3.193000000
C    -4.190000000    -5.595000000     1.789000000
O    -5.362000000    -4.723000000     1.719000000
C    -5.267000000    -3.349000000     1.533000000
C    -5.919000000    -2.770000000     0.474000000
H    -6.470000000    -3.516000000    -0.094000000
C    -5.888000000    -1.400000000     0.297000000
O    -6.627000000    -0.845000000    -0.736000000
C    -6.662000000     0.515000000    -0.964000000
C    -5.859000000     1.128000000    -1.902000000
H    -5.090000000     0.578000000    -2.439000000
C    -7.650000000     1.241000000    -0.297000000
H    -8.314000000     0.687000000     0.361000000
C    -7.811000000     2.595000000    -0.515000000
H    -8.642000000     3.098000000    -0.028000000
C    -7.061000000     3.266000000    -1.483000000
H    -7.301000000     4.274000000    -1.813000000
C    -5.977000000     2.559000000    -2.097000000
O    -5.263000000     3.130000000    -3.120000000
C    -3.885000000     3.261000000    -3.046000000
C    -3.140000000     3.232000000    -4.235000000
H    -3.734000000     2.996000000    -5.114000000
C    -1.789000000     3.569000000    -4.180000000
O    -1.187000000     3.586000000    -5.403000000
C     0.111000000     3.959000000    -5.558000000
C     1.145000000     3.069000000    -5.648000000
H     1.053000000     2.005000000    -5.848000000
C     0.401000000     5.316000000    -5.344000000
H    -0.394000000     6.057000000    -5.341000000
C     1.739000000     5.718000000    -5.374000000
H     2.028000000     6.765000000    -5.322000000
C     2.735000000     4.762000000    -5.613000000
H     3.785000000     5.013000000    -5.734000000
C     2.461000000     3.451000000    -5.700000000
O     3.415000000     2.483000000    -5.890000000
C     3.804000000     1.586000000    -4.874000000
C     4.201000000     0.266000000    -5.131000000
H     4.200000000    -0.023000000    -6.179000000
C     4.541000000    -0.650000000    -4.167000000
O     4.354000000    -2.030000000    -4.469000000
C     4.700000000    -2.963000000    -3.525000000
C     6.021000000    -3.017000000    -3.133000000
H     6.638000000    -2.150000000    -3.355000000
C     6.388000000    -3.973000000    -2.225000000
H     7.355000000    -3.943000000    -1.731000000
C     5.529000000    -5.036000000    -1.921000000
H     5.893000000    -5.903000000    -1.375000000
C     4.202000000    -5.029000000    -2.331000000
C     3.776000000    -3.948000000    -3.124000000
H     2.763000000    -4.006000000    -3.514000000
C     0.888000000    -1.208000000    -2.054000000
H     1.346000000    -1.805000000    -2.838000000
C     1.575000000    -0.979000000    -0.867000000
H     2.532000000    -1.486000000    -0.770000000
C     1.000000000    -0.224000000     0.202000000
H     1.473000000    -0.221000000     1.166000000
C    -0.254000000     0.375000000     0.009000000
H    -0.832000000     0.868000000     0.786000000
C    -0.893000000     0.176000000    -1.240000000
H    -1.918000000     0.503000000    -1.394000000
C    -0.418000000    -0.654000000    -2.205000000
C    -1.163000000    -0.842000000    -3.469000000
O    -2.353000000    -0.701000000    -3.523000000
O    -0.512000000    -1.349000000    -4.364000000
O    -5.068000000    -1.976000000    -6.266000000
H    -4.283000000    -2.504000000    -6.121000000
H    -5.795000000    -2.584000000    -6.132000000
O     1.730000000    -1.594000000    -5.856000000
H     0.923000000    -1.448000000    -5.362000000
H     2.412000000    -1.658000000    -5.187000000
O    -2.265000000    -2.692000000    -5.950000000
H    -2.161000000    -1.918000000    -5.396000000
H    -2.562000000    -3.377000000    -5.352000000
O    -6.907000000     2.010000000    -5.289000000
H    -5.994000000     1.755000000    -5.422000000
H    -7.289000000     1.996000000    -6.167000000
O     1.322000000     0.269000000    -8.279000000
H     1.673000000    -0.492000000    -7.815000000
H     0.427000000     0.356000000    -7.952000000
O    -1.393000000    -3.988000000    -1.888000000
H    -0.839000000    -4.279000000    -1.164000000
H    -0.777000000    -3.719000000    -2.569000000
O    -1.158000000    -2.112000000    -9.518000000
H    -0.621000000    -2.626000000   -10.120000000
H    -0.544000000    -1.498000000    -9.115000000
O    -0.970000000    -7.190000000    -5.316000000
H    -0.494000000    -6.619000000    -5.920000000
H    -1.887000000    -7.104000000    -5.578000000
O    -3.798000000    -2.266000000    -1.995000000
H    -3.390000000    -1.572000000    -2.513000000
H    -3.063000000    -2.729000000    -1.594000000
O    -6.459000000    -3.008000000    -3.348000000
H    -5.814000000    -2.698000000    -2.712000000
H    -6.847000000    -2.209000000    -3.705000000
O     1.075000000    -5.262000000    -6.631000000
H     1.630000000    -5.503000000    -7.372000000
H     0.387000000    -4.717000000    -7.014000000
O    -0.072000000    -3.954000000    -4.390000000
H     0.431000000    -4.238000000    -5.153000000
H    -0.159000000    -3.007000000    -4.499000000
O    -1.084000000     0.101000000    -6.863000000
H    -2.009000000     0.152000000    -7.106000000
H    -1.087000000     0.108000000    -5.906000000
O    -1.026000000    -4.152000000    -7.664000000
H    -1.585000000    -3.591000000    -7.126000000
H    -1.173000000    -3.849000000    -8.559000000
O    -3.842000000    -6.662000000    -6.097000000
H    -4.732000000    -6.951000000    -5.895000000
H    -3.700000000    -5.907000000    -5.526000000
O    -2.339000000    -6.253000000    -3.048000000
H    -1.817000000    -6.651000000    -3.745000000
H    -1.889000000    -5.431000000    -2.852000000
O     2.898000000    -2.987000000    -7.850000000
H     2.385000000    -2.572000000    -7.157000000
H     3.556000000    -2.333000000    -8.085000000
O    -4.000000000    -3.881000000    -4.260000000
H    -4.907000000    -3.712000000    -4.003000000
H    -3.494000000    -3.738000000    -3.460000000
O    -4.550000000     0.340000000    -5.054000000
H    -4.731000000    -0.419000000    -5.609000000
H    -3.898000000     0.028000000    -4.426000000
