215
-1448.61070
C    -4.966000000    -0.247000000     1.365000000
H    -4.899000000     0.832000000     1.484000000
C    -4.160000000    -1.044000000     2.140000000
C    -4.335000000    -2.438000000     2.119000000
H    -3.922000000    -3.109000000     2.868000000
C    -3.068000000    -0.362000000     2.996000000
O    -3.500000000     0.982000000     3.515000000
H    -2.294000000    -0.141000000     2.246000000
O    -2.520000000    -1.172000000     3.973000000
C    -1.173000000    -1.234000000     4.130000000
C    -0.524000000    -2.365000000     3.702000000
H    -1.151000000    -3.187000000     3.366000000
C     0.840000000    -2.537000000     3.740000000
O     1.553000000    -3.611000000     3.175000000
C     1.547000000    -1.464000000     4.251000000
C     3.097000000    -1.515000000     4.426000000
H     3.384000000    -0.856000000     5.248000000
C     3.852000000    -1.099000000     3.156000000
C     4.281000000     0.241000000     3.067000000
H     4.011000000     0.929000000     3.863000000
H     3.449000000    -2.510000000     4.707000000
C     0.955000000    -0.359000000     4.792000000
H     1.473000000     0.459000000     5.287000000
C    -0.429000000    -0.173000000     4.695000000
C    -1.152000000     1.024000000     5.243000000
H    -0.570000000     1.450000000     6.062000000
H    -2.164000000     0.791000000     5.582000000
C    -1.350000000     2.077000000     4.208000000
C    -0.355000000     2.991000000     4.018000000
H     0.514000000     2.977000000     4.671000000
C    -2.518000000     2.028000000     3.431000000
C    -2.630000000     2.920000000     2.348000000
H    -3.527000000     2.818000000     1.742000000
C    -1.606000000     3.863000000     2.124000000
O    -1.760000000     4.725000000     1.098000000
C    -1.069000000     4.322000000    -0.184000000
C    -1.978000000     4.386000000    -1.381000000
C    -1.408000000     4.279000000    -2.634000000
H    -0.325000000     4.320000000    -2.721000000
C    -3.357000000     4.370000000    -1.279000000
H    -3.842000000     4.360000000    -0.306000000
O     0.208000000     5.007000000    -0.366000000
H    -0.893000000     3.243000000    -0.062000000
C    -0.440000000     3.909000000     2.944000000
C     0.573000000     4.933000000     2.578000000
H     1.220000000     5.135000000     3.434000000
H     0.186000000     5.895000000     2.235000000
C     1.477000000     4.334000000     1.595000000
C     2.607000000     3.642000000     2.011000000
H     2.815000000     3.659000000     3.078000000
C     1.313000000     4.492000000     0.224000000
C     2.176000000     3.841000000    -0.667000000
H     1.848000000     3.700000000    -1.693000000
C     3.331000000     3.187000000    -0.176000000
O     4.156000000     2.572000000    -1.119000000
C     4.066000000     1.154000000    -1.226000000
C     4.086000000     0.716000000    -2.671000000
C     3.233000000     1.392000000    -3.505000000
H     2.720000000     2.261000000    -3.100000000
C     4.645000000    -0.459000000    -3.086000000
H     5.359000000    -0.901000000    -2.396000000
O     5.136000000     0.477000000    -0.510000000
H     3.108000000     0.793000000    -0.823000000
C     3.533000000     3.037000000     1.202000000
C     4.772000000     2.323000000     1.743000000
H     4.966000000     2.604000000     2.780000000
H     5.668000000     2.633000000     1.201000000
C     4.622000000     0.784000000     1.835000000
C     4.747000000    -0.044000000     0.672000000
C     4.509000000    -1.411000000     0.761000000
H     4.384000000    -2.012000000    -0.136000000
C     3.998000000    -1.859000000     1.973000000
O     3.497000000    -3.148000000     1.938000000
C     2.014000000    -3.334000000     1.851000000
H     1.510000000    -2.440000000     1.455000000
C     1.638000000    -4.375000000     0.759000000
C     0.471000000    -5.171000000     0.982000000
H    -0.071000000    -5.162000000     1.924000000
C     2.363000000    -4.542000000    -0.412000000
H     3.239000000    -3.917000000    -0.566000000
C     1.825000000    -5.284000000    -1.455000000
O     2.483000000    -5.378000000    -2.690000000
C     0.721000000    -6.098000000    -1.198000000
H     0.273000000    -6.745000000    -1.948000000
C    -0.015000000    -6.051000000    -0.007000000
O    -1.092000000    -6.898000000     0.246000000
C    -2.157000000    -6.552000000     1.019000000
C    -3.044000000    -5.509000000     0.640000000
H    -2.853000000    -5.010000000    -0.307000000
C    -2.355000000    -7.251000000     2.231000000
H    -1.580000000    -7.924000000     2.588000000
C    -3.431000000    -6.875000000     3.070000000
H    -3.486000000    -7.211000000     4.102000000
C    -4.388000000    -5.977000000     2.573000000
H    -5.317000000    -5.968000000     3.136000000
C    -4.219000000    -5.286000000     1.354000000
O    -5.124000000    -4.433000000     0.732000000
C    -5.071000000    -3.052000000     1.032000000
C    -5.850000000    -2.223000000     0.238000000
H    -6.469000000    -2.641000000    -0.552000000
C    -5.862000000    -0.780000000     0.425000000
O    -6.575000000    -0.026000000    -0.528000000
C    -6.626000000     1.349000000    -0.530000000
C    -5.794000000     2.123000000    -1.316000000
H    -5.094000000     1.624000000    -1.981000000
C    -7.686000000     1.945000000     0.127000000
H    -8.280000000     1.250000000     0.715000000
C    -8.006000000     3.257000000     0.057000000
H    -8.800000000     3.712000000     0.644000000
C    -7.220000000     4.018000000    -0.836000000
H    -7.520000000     5.021000000    -1.129000000
C    -6.102000000     3.524000000    -1.482000000
O    -5.448000000     4.275000000    -2.391000000
C    -4.079000000     4.216000000    -2.447000000
C    -3.488000000     4.133000000    -3.726000000
H    -4.031000000     4.095000000    -4.667000000
C    -2.148000000     4.131000000    -3.795000000
O    -1.625000000     4.280000000    -5.055000000
C    -0.301000000     4.085000000    -5.302000000
C     0.294000000     2.851000000    -5.101000000
H    -0.278000000     1.955000000    -4.874000000
C     0.433000000     5.194000000    -5.671000000
H    -0.115000000     6.115000000    -5.853000000
C     1.805000000     5.076000000    -5.999000000
H     2.372000000     5.949000000    -6.313000000
C     2.359000000     3.814000000    -5.859000000
H     3.411000000     3.667000000    -6.089000000
C     1.633000000     2.754000000    -5.459000000
O     2.101000000     1.515000000    -5.651000000
C     2.962000000     0.844000000    -4.772000000
C     3.544000000    -0.346000000    -5.221000000
H     3.491000000    -0.784000000    -6.214000000
C     4.477000000    -0.909000000    -4.395000000
O     5.081000000    -2.070000000    -4.817000000
C     5.005000000    -3.198000000    -4.097000000
C     6.200000000    -3.818000000    -3.691000000
H     7.125000000    -3.335000000    -3.997000000
C     6.071000000    -4.878000000    -2.820000000
H     6.908000000    -5.408000000    -2.373000000
C     4.814000000    -5.447000000    -2.512000000
H     4.759000000    -6.381000000    -1.958000000
C     3.633000000    -4.835000000    -3.014000000
C     3.732000000    -3.696000000    -3.789000000
H     2.817000000    -3.201000000    -4.106000000
C     0.768000000    -1.066000000    -2.639000000
H     1.556000000    -1.641000000    -3.118000000
C     1.004000000    -0.622000000    -1.343000000
H     1.924000000    -1.045000000    -0.946000000
C     0.188000000     0.200000000    -0.593000000
H     0.377000000     0.442000000     0.498000000
C    -0.958000000     0.727000000    -1.230000000
H    -1.624000000     1.406000000    -0.704000000
C    -1.187000000     0.410000000    -2.554000000
H    -2.116000000     0.846000000    -2.912000000
C    -0.346000000    -0.533000000    -3.251000000
C    -0.564000000    -0.940000000    -4.683000000
O    -1.187000000    -0.194000000    -5.407000000
O    -0.172000000    -2.025000000    -5.147000000
O     4.092000000    -4.345000000    -6.866000000
H     3.198000000    -4.026000000    -6.740000000
H     4.382000000    -4.598000000    -5.989000000
O    -5.557000000    -2.429000000    -6.005000000
H    -4.601000000    -2.472000000    -6.025000000
H    -5.767000000    -2.181000000    -5.105000000
O     0.256000000     0.720000000    -7.443000000
H     0.934000000     1.345000000    -7.187000000
H    -0.003000000     0.298000000    -6.624000000
O    -1.081000000    -4.502000000    -4.942000000
H    -0.320000000    -4.891000000    -5.373000000
H    -0.911000000    -3.561000000    -4.960000000
O     1.234000000    -6.636000000    -4.929000000
H     1.580000000    -5.845000000    -5.342000000
H     1.942000000    -6.940000000    -4.361000000
O    -0.799000000    -5.427000000    -7.679000000
H    -1.219000000    -6.160000000    -7.228000000
H    -1.114000000    -5.488000000    -8.580000000
O    -4.989000000     2.045000000    -5.856000000
H    -4.244000000     2.187000000    -6.440000000
H    -5.080000000     2.869000000    -5.379000000
O     1.731000000    -2.435000000    -9.834000000
H     2.029000000    -3.343000000    -9.777000000
H     1.751000000    -2.235000000   -10.770000000
O    -1.049000000     0.948000000    -9.885000000
H    -0.532000000     0.670000000    -9.129000000
H    -0.407000000     1.054000000   -10.588000000
O    -2.424000000     1.799000000    -7.092000000
H    -2.070000000     1.066000000    -6.588000000
H    -2.312000000     1.538000000    -8.006000000
O    -3.073000000    -6.515000000    -4.701000000
H    -2.419000000    -5.906000000    -5.044000000
H    -2.784000000    -6.699000000    -3.807000000
O    -2.320000000    -2.473000000    -0.345000000
H    -2.484000000    -1.574000000    -0.062000000
H    -1.416000000    -2.463000000    -0.662000000
O    -4.375000000    -4.077000000    -7.941000000
H    -5.048000000    -3.772000000    -7.333000000
H    -3.574000000    -3.642000000    -7.650000000
O    -3.714000000    -4.239000000    -2.847000000
H    -2.990000000    -3.820000000    -2.381000000
H    -3.331000000    -5.034000000    -3.218000000
O     1.461000000    -3.632000000    -6.717000000
H     0.795000000    -4.032000000    -7.276000000
H     0.973000000    -3.023000000    -6.162000000
O    -3.921000000    -0.162000000    -4.284000000
H    -4.584000000     0.368000000    -4.725000000
H    -3.106000000     0.044000000    -4.741000000
O    -2.665000000    -2.390000000    -6.370000000
H    -2.019000000    -1.683000000    -6.379000000
H    -2.251000000    -3.087000000    -5.862000000
O     3.419000000    -0.107000000    -9.144000000
H     2.736000000    -0.773000000    -9.072000000
H     3.548000000     0.003000000   -10.086000000
O    -5.733000000    -2.023000000    -3.214000000
H    -5.095000000    -2.562000000    -2.745000000
H    -5.265000000    -1.211000000    -3.407000000
