215
-1476.18615
C    -4.876000000     0.496000000     0.268000000
H    -4.548000000     1.529000000     0.353000000
C    -4.368000000    -0.393000000     1.194000000
C    -4.790000000    -1.707000000     1.051000000
H    -4.414000000    -2.484000000     1.711000000
C    -3.426000000     0.129000000     2.234000000
O    -3.780000000     1.437000000     2.716000000
H    -2.460000000     0.057000000     1.711000000
O    -3.348000000    -0.777000000     3.350000000
C    -2.102000000    -1.141000000     3.739000000
C    -1.580000000    -2.355000000     3.356000000
H    -2.228000000    -2.984000000     2.751000000
C    -0.321000000    -2.711000000     3.714000000
O     0.154000000    -3.857000000     3.183000000
C     0.494000000    -1.847000000     4.500000000
C     1.929000000    -2.179000000     4.745000000
H     2.255000000    -1.747000000     5.694000000
C     2.701000000    -1.697000000     3.617000000
C     3.262000000    -0.425000000     3.796000000
H     2.973000000     0.164000000     4.663000000
H     2.074000000    -3.250000000     4.903000000
C    -0.044000000    -0.591000000     4.874000000
H     0.616000000     0.075000000     5.426000000
C    -1.348000000    -0.207000000     4.524000000
C    -2.013000000     1.132000000     4.971000000
H    -1.565000000     1.412000000     5.926000000
H    -3.066000000     1.019000000     5.238000000
C    -1.811000000     2.208000000     3.896000000
C    -0.699000000     3.054000000     3.917000000
H    -0.073000000     3.071000000     4.805000000
C    -2.691000000     2.314000000     2.832000000
C    -2.449000000     3.235000000     1.818000000
H    -3.103000000     3.223000000     0.950000000
C    -1.344000000     4.067000000     1.838000000
O    -1.036000000     4.806000000     0.695000000
C    -0.226000000     4.243000000    -0.320000000
C    -0.843000000     4.561000000    -1.708000000
C    -0.044000000     4.265000000    -2.785000000
H     0.953000000     3.864000000    -2.624000000
C    -2.209000000     4.920000000    -1.870000000
H    -2.916000000     5.173000000    -1.084000000
O     1.047000000     4.852000000    -0.181000000
H    -0.063000000     3.156000000    -0.293000000
C    -0.517000000     4.002000000     2.942000000
C     0.766000000     4.832000000     2.914000000
H     1.118000000     4.839000000     3.948000000
H     0.538000000     5.811000000     2.488000000
C     1.763000000     4.047000000     2.071000000
C     2.660000000     3.206000000     2.758000000
H     2.525000000     3.029000000     3.822000000
C     1.848000000     4.216000000     0.662000000
C     2.871000000     3.562000000     0.059000000
H     3.059000000     3.660000000    -1.007000000
C     3.726000000     2.707000000     0.709000000
O     4.639000000     2.002000000    -0.034000000
C     4.261000000     0.633000000    -0.338000000
C     4.492000000     0.205000000    -1.794000000
C     4.440000000     1.103000000    -2.863000000
H     4.179000000     2.151000000    -2.742000000
C     4.702000000    -1.168000000    -2.147000000
H     4.693000000    -1.974000000    -1.417000000
O     4.988000000    -0.295000000     0.589000000
H     3.168000000     0.560000000    -0.244000000
C     3.650000000     2.502000000     2.076000000
C     4.520000000     1.482000000     2.820000000
H     4.569000000     1.691000000     3.891000000
H     5.536000000     1.587000000     2.434000000
C     4.010000000     0.073000000     2.732000000
C     4.297000000    -0.751000000     1.630000000
C     3.735000000    -1.994000000     1.481000000
H     3.885000000    -2.515000000     0.539000000
C     3.005000000    -2.552000000     2.507000000
O     2.386000000    -3.732000000     2.401000000
C     1.001000000    -3.733000000     1.980000000
H     0.820000000    -2.715000000     1.605000000
C     0.577000000    -4.715000000     0.938000000
C    -0.685000000    -5.362000000     0.960000000
H    -1.274000000    -5.229000000     1.863000000
C     1.307000000    -4.913000000    -0.210000000
H     2.121000000    -4.214000000    -0.384000000
C     0.896000000    -5.675000000    -1.329000000
O     1.711000000    -5.831000000    -2.476000000
C    -0.325000000    -6.264000000    -1.246000000
H    -0.547000000    -6.909000000    -2.092000000
C    -1.133000000    -6.060000000    -0.168000000
O    -2.380000000    -6.654000000    -0.162000000
C    -3.608000000    -6.197000000     0.274000000
C    -4.147000000    -5.096000000    -0.328000000
H    -3.719000000    -4.706000000    -1.248000000
C    -4.030000000    -6.666000000     1.478000000
H    -3.470000000    -7.466000000     1.956000000
C    -5.077000000    -5.981000000     2.053000000
H    -5.523000000    -6.277000000     2.999000000
C    -5.709000000    -4.921000000     1.406000000
H    -6.529000000    -4.370000000     1.859000000
C    -5.254000000    -4.528000000     0.134000000
O    -5.787000000    -3.441000000    -0.457000000
C    -5.591000000    -2.126000000    -0.056000000
C    -6.062000000    -1.198000000    -0.942000000
H    -6.726000000    -1.508000000    -1.745000000
C    -5.686000000     0.096000000    -0.791000000
O    -5.981000000     0.958000000    -1.814000000
C    -5.945000000     2.329000000    -1.724000000
C    -5.056000000     3.028000000    -2.534000000
H    -4.455000000     2.529000000    -3.290000000
C    -6.870000000     3.056000000    -0.942000000
H    -7.617000000     2.450000000    -0.435000000
C    -6.823000000     4.455000000    -0.862000000
H    -7.523000000     4.981000000    -0.218000000
C    -5.885000000     5.071000000    -1.664000000
H    -5.877000000     6.158000000    -1.626000000
C    -5.027000000     4.399000000    -2.483000000
O    -4.132000000     5.050000000    -3.325000000
C    -2.729000000     4.891000000    -3.160000000
C    -1.934000000     4.514000000    -4.247000000
H    -2.343000000     4.402000000    -5.247000000
C    -0.583000000     4.206000000    -4.055000000
O     0.167000000     3.679000000    -5.026000000
C     1.571000000     3.759000000    -5.137000000
C     2.372000000     2.582000000    -5.195000000
H     1.936000000     1.590000000    -5.273000000
C     2.213000000     4.982000000    -5.119000000
H     1.709000000     5.945000000    -5.147000000
C     3.621000000     5.075000000    -5.166000000
H     4.080000000     6.046000000    -5.334000000
C     4.366000000     3.912000000    -5.146000000
H     5.451000000     3.933000000    -5.195000000
C     3.745000000     2.690000000    -5.186000000
O     4.541000000     1.543000000    -5.250000000
C     4.625000000     0.699000000    -4.176000000
C     4.908000000    -0.638000000    -4.451000000
H     4.977000000    -0.870000000    -5.510000000
C     5.030000000    -1.585000000    -3.485000000
O     5.284000000    -2.905000000    -3.845000000
C     4.832000000    -3.992000000    -3.116000000
C     5.683000000    -4.601000000    -2.195000000
H     6.723000000    -4.302000000    -2.093000000
C     5.196000000    -5.654000000    -1.410000000
H     5.811000000    -6.170000000    -0.677000000
C     3.863000000    -6.033000000    -1.506000000
H     3.386000000    -6.848000000    -0.968000000
C     3.045000000    -5.447000000    -2.448000000
C     3.518000000    -4.374000000    -3.252000000
H     2.816000000    -3.895000000    -3.930000000
C     0.666000000    -0.727000000    -1.842000000
H     1.084000000    -1.299000000    -2.667000000
C     1.206000000    -0.963000000    -0.557000000
H     2.009000000    -1.682000000    -0.417000000
C     0.835000000    -0.153000000     0.520000000
H     1.333000000    -0.246000000     1.465000000
C    -0.233000000     0.735000000     0.334000000
H    -0.507000000     1.289000000     1.228000000
C    -0.897000000     0.825000000    -0.916000000
H    -1.788000000     1.435000000    -1.046000000
C    -0.407000000     0.112000000    -2.011000000
C    -1.058000000     0.267000000    -3.337000000
O    -2.098000000     0.826000000    -3.576000000
O    -0.507000000    -0.297000000    -4.311000000
O     0.659000000    -4.025000000    -8.113000000
H    -0.298000000    -4.049000000    -8.094000000
H     0.869000000    -3.281000000    -8.677000000
O     3.334000000    -3.720000000    -6.467000000
H     2.811000000    -3.186000000    -5.870000000
H     2.703000000    -4.314000000    -6.873000000
O    -5.211000000    -2.455000000    -8.341000000
H    -4.930000000    -2.513000000    -7.428000000
H    -4.691000000    -3.118000000    -8.795000000
O    -0.031000000     0.251000000    -6.780000000
H    -0.763000000    -0.190000000    -7.210000000
H    -0.097000000    -0.014000000    -5.862000000
O     1.581000000    -1.976000000    -5.239000000
H     2.066000000    -1.216000000    -4.920000000
H     0.738000000    -1.929000000    -4.788000000
O     0.444000000     2.670000000    -8.077000000
H     0.233000000     2.177000000    -7.283000000
H     0.409000000     2.019000000    -8.778000000
O    -4.765000000     2.128000000    -5.798000000
H    -4.773000000     1.324000000    -5.279000000
H    -3.858000000     2.214000000    -6.092000000
O    -2.931000000     3.659000000    -8.610000000
H    -2.693000000     3.579000000    -9.534000000
H    -2.534000000     2.894000000    -8.193000000
O    -2.068000000     2.014000000    -6.210000000
H    -1.429000000     1.348000000    -6.463000000
H    -1.960000000     2.102000000    -5.263000000
O    -3.234000000    -2.019000000    -2.038000000
H    -3.302000000    -1.639000000    -1.162000000
H    -3.992000000    -1.675000000    -2.509000000
O    -4.163000000    -2.695000000    -5.782000000
H    -4.782000000    -2.943000000    -5.096000000
H    -3.381000000    -3.217000000    -5.598000000
O    -6.172000000    -2.984000000    -3.819000000
H    -6.927000000    -3.494000000    -3.528000000
H    -6.552000000    -2.239000000    -4.286000000
O    -1.994000000    -5.099000000    -7.964000000
H    -1.914000000    -6.052000000    -8.001000000
H    -1.998000000    -4.894000000    -7.029000000
O    -2.275000000    -1.090000000    -7.489000000
H    -3.026000000    -0.840000000    -8.027000000
H    -2.631000000    -1.715000000    -6.857000000
O    -1.363000000    -2.813000000    -4.011000000
H    -1.948000000    -2.668000000    -3.267000000
H    -1.203000000    -1.938000000    -4.364000000
O    -7.023000000    -0.764000000    -6.016000000
H    -6.192000000    -0.432000000    -5.676000000
H    -7.041000000    -0.478000000    -6.929000000
O    -2.323000000    -4.940000000    -5.169000000
H    -1.780000000    -4.253000000    -4.783000000
H    -2.789000000    -5.323000000    -4.426000000
O     2.017000000    -0.502000000    -8.468000000
H     1.247000000    -1.023000000    -8.696000000
H     1.761000000    -0.030000000    -7.676000000
O    -4.484000000    -0.143000000    -4.586000000
H    -3.680000000     0.104000000    -4.129000000
H    -4.253000000    -0.940000000    -5.062000000
