215
-1433.55948
C    -4.851000000     1.180000000    -1.799000000
H    -4.473000000     2.174000000    -1.575000000
C    -4.782000000     0.105000000    -0.891000000
C    -5.091000000    -1.134000000    -1.359000000
H    -5.069000000    -1.919000000    -0.607000000
C    -4.188000000     0.262000000     0.515000000
O    -4.704000000     1.483000000     1.096000000
H    -3.113000000     0.491000000     0.514000000
O    -4.522000000    -0.856000000     1.383000000
C    -3.582000000    -1.303000000     2.302000000
C    -3.071000000    -2.511000000     2.031000000
H    -3.436000000    -3.109000000     1.200000000
C    -2.163000000    -3.061000000     2.881000000
O    -1.509000000    -4.238000000     2.406000000
C    -1.722000000    -2.389000000     3.974000000
C    -0.560000000    -2.956000000     4.763000000
H    -0.610000000    -2.626000000     5.803000000
C     0.825000000    -2.555000000     4.166000000
C     1.345000000    -1.378000000     4.580000000
H     0.768000000    -0.856000000     5.339000000
H    -0.630000000    -4.045000000     4.727000000
C    -2.229000000    -1.121000000     4.290000000
H    -1.762000000    -0.546000000     5.085000000
C    -3.168000000    -0.612000000     3.486000000
C    -4.004000000     0.601000000     3.939000000
H    -4.081000000     0.742000000     5.019000000
H    -5.052000000     0.642000000     3.636000000
C    -3.353000000     1.792000000     3.149000000
C    -2.307000000     2.555000000     3.732000000
H    -1.942000000     2.232000000     4.704000000
C    -3.754000000     2.192000000     1.842000000
C    -3.090000000     3.147000000     1.120000000
H    -3.413000000     3.446000000     0.127000000
C    -1.968000000     3.822000000     1.757000000
O    -1.228000000     4.730000000     1.015000000
C    -0.030000000     4.192000000     0.396000000
C     0.212000000     4.628000000    -1.073000000
C     1.526000000     4.933000000    -1.489000000
H     2.334000000     4.919000000    -0.761000000
C    -0.761000000     4.338000000    -2.078000000
H    -1.761000000     4.153000000    -1.696000000
O     1.074000000     4.613000000     1.272000000
H    -0.037000000     3.092000000     0.389000000
C    -1.585000000     3.469000000     3.023000000
C    -0.369000000     4.084000000     3.711000000
H    -0.380000000     4.069000000     4.803000000
H    -0.316000000     5.094000000     3.302000000
C     0.897000000     3.359000000     3.281000000
C     1.379000000     2.389000000     4.073000000
H     0.837000000     2.016000000     4.939000000
C     1.583000000     3.705000000     2.108000000
C     2.797000000     3.132000000     1.783000000
H     3.242000000     3.396000000     0.827000000
C     3.233000000     2.040000000     2.583000000
O     4.350000000     1.366000000     2.143000000
C     3.993000000     0.144000000     1.474000000
C     4.814000000    -0.057000000     0.188000000
C     5.052000000     1.037000000    -0.677000000
H     4.627000000     2.006000000    -0.429000000
C     5.317000000    -1.298000000    -0.129000000
H     5.175000000    -2.137000000     0.548000000
O     4.192000000    -1.044000000     2.402000000
H     2.937000000     0.238000000     1.179000000
C     2.528000000     1.715000000     3.701000000
C     3.014000000     0.538000000     4.540000000
H     2.713000000     0.640000000     5.585000000
H     4.103000000     0.459000000     4.544000000
C     2.520000000    -0.859000000     4.055000000
C     3.098000000    -1.581000000     3.058000000
C     2.463000000    -2.684000000     2.502000000
H     2.965000000    -3.104000000     1.634000000
C     1.404000000    -3.255000000     3.144000000
O     0.751000000    -4.285000000     2.535000000
C    -0.291000000    -3.916000000     1.637000000
H    -0.262000000    -2.829000000     1.468000000
C    -0.207000000    -4.681000000     0.303000000
C    -1.306000000    -5.212000000    -0.367000000
H    -2.260000000    -5.058000000     0.131000000
C     1.007000000    -4.639000000    -0.352000000
H     1.921000000    -4.341000000     0.156000000
C     1.125000000    -5.270000000    -1.579000000
O     2.247000000    -5.326000000    -2.322000000
C    -0.031000000    -5.842000000    -2.194000000
H     0.053000000    -6.303000000    -3.174000000
C    -1.243000000    -5.784000000    -1.619000000
O    -2.322000000    -6.054000000    -2.454000000
C    -3.610000000    -5.635000000    -2.226000000
C    -3.990000000    -4.383000000    -2.615000000
H    -3.391000000    -3.707000000    -3.220000000
C    -4.607000000    -6.443000000    -1.588000000
H    -4.318000000    -7.466000000    -1.365000000
C    -5.888000000    -5.944000000    -1.391000000
H    -6.635000000    -6.581000000    -0.924000000
C    -6.224000000    -4.675000000    -1.767000000
H    -7.258000000    -4.345000000    -1.708000000
C    -5.243000000    -3.882000000    -2.383000000
O    -5.686000000    -2.715000000    -3.084000000
C    -5.370000000    -1.393000000    -2.723000000
C    -5.571000000    -0.321000000    -3.601000000
H    -5.877000000    -0.464000000    -4.635000000
C    -5.332000000     1.000000000    -3.116000000
O    -5.595000000     2.093000000    -3.923000000
C    -4.906000000     3.236000000    -3.708000000
C    -3.629000000     3.372000000    -4.203000000
H    -3.179000000     2.540000000    -4.739000000
C    -5.541000000     4.259000000    -3.028000000
H    -6.541000000     4.198000000    -2.606000000
C    -4.846000000     5.461000000    -2.847000000
H    -5.304000000     6.280000000    -2.299000000
C    -3.591000000     5.611000000    -3.359000000
H    -3.069000000     6.546000000    -3.174000000
C    -2.915000000     4.557000000    -4.000000000
O    -1.590000000     4.556000000    -4.291000000
C    -0.584000000     4.703000000    -3.388000000
C     0.691000000     5.124000000    -3.781000000
H     0.801000000     5.413000000    -4.823000000
C     1.702000000     5.215000000    -2.802000000
O     2.981000000     5.470000000    -3.288000000
C     4.160000000     4.960000000    -2.894000000
C     4.409000000     3.611000000    -3.109000000
H     3.709000000     2.930000000    -3.586000000
C     5.125000000     5.859000000    -2.408000000
H     4.913000000     6.915000000    -2.256000000
C     6.354000000     5.378000000    -2.109000000
H     7.078000000     6.085000000    -1.711000000
C     6.629000000     4.020000000    -2.180000000
H     7.609000000     3.604000000    -1.959000000
C     5.636000000     3.114000000    -2.677000000
O     5.982000000     1.816000000    -2.827000000
C     5.858000000     0.831000000    -1.858000000
C     6.252000000    -0.464000000    -2.185000000
H     6.860000000    -0.634000000    -3.070000000
C     6.014000000    -1.591000000    -1.313000000
O     6.495000000    -2.938000000    -1.600000000
C     5.599000000    -4.059000000    -1.481000000
C     6.029000000    -5.075000000    -0.643000000
H     7.031000000    -4.945000000    -0.240000000
C     5.398000000    -6.279000000    -0.498000000
H     5.844000000    -7.081000000     0.083000000
C     4.091000000    -6.312000000    -0.968000000
H     3.407000000    -7.145000000    -0.824000000
C     3.523000000    -5.255000000    -1.721000000
C     4.340000000    -4.175000000    -2.003000000
H     3.979000000    -3.389000000    -2.661000000
C     1.708000000    -0.574000000    -1.759000000
H     2.708000000    -0.981000000    -1.633000000
C     0.797000000    -0.737000000    -0.686000000
H     1.057000000    -1.280000000     0.219000000
C    -0.509000000    -0.234000000    -0.784000000
H    -1.160000000    -0.407000000     0.112000000
C    -0.872000000     0.502000000    -1.919000000
H    -1.920000000     0.771000000    -2.026000000
C     0.094000000     0.829000000    -2.849000000
H    -0.278000000     1.497000000    -3.622000000
C     1.375000000     0.255000000    -2.833000000
C     2.389000000     0.448000000    -3.955000000
O     2.111000000     1.123000000    -4.934000000
O     3.245000000    -0.436000000    -4.010000000
O    -2.228000000    -0.785000000    -5.759000000
H    -2.349000000    -1.141000000    -4.879000000
H    -1.279000000    -0.712000000    -5.860000000
O     5.218000000    -2.210000000    -5.055000000
H     5.880000000    -2.721000000    -4.589000000
H     4.893000000    -1.589000000    -4.404000000
O     2.435000000     5.420000000    -7.985000000
H     2.508000000     4.977000000    -7.139000000
H     1.662000000     5.029000000    -8.393000000
O     2.509000000    -2.403000000    -6.037000000
H     2.821000000    -1.868000000    -5.308000000
H     2.691000000    -3.304000000    -5.769000000
O     3.555000000    -0.959000000   -10.332000000
H     3.482000000    -0.760000000    -9.398000000
H     2.825000000    -1.551000000   -10.509000000
O     2.761000000    -5.140000000    -5.459000000
H     3.344000000    -5.560000000    -4.827000000
H     2.238000000    -5.857000000    -5.816000000
O     1.538000000     2.086000000    -9.735000000
H     1.518000000     1.459000000   -10.458000000
H     2.456000000     2.346000000    -9.668000000
O     6.436000000     2.172000000    -7.887000000
H     7.090000000     2.575000000    -7.316000000
H     6.018000000     1.507000000    -7.340000000
O     2.902000000     3.248000000    -6.261000000
H     2.663000000     2.479000000    -5.744000000
H     3.850000000     3.173000000    -6.376000000
O     5.061000000     1.003000000    -5.441000000
H     4.182000000     0.878000000    -5.085000000
H     5.583000000     1.294000000    -4.693000000
O    -0.337000000     4.439000000    -8.594000000
H    -1.024000000     4.708000000    -7.984000000
H    -0.293000000     3.487000000    -8.498000000
O    -1.424000000    -2.064000000    -3.423000000
H    -1.056000000    -2.926000000    -3.621000000
H    -0.702000000    -1.582000000    -3.019000000
O    -1.647000000    -2.653000000    -8.224000000
H    -1.039000000    -3.357000000    -8.000000000
H    -1.520000000    -1.998000000    -7.537000000
O     3.579000000    -0.310000000    -7.835000000
H     3.317000000    -1.061000000    -7.303000000
H     4.284000000     0.103000000    -7.337000000
O    -0.282000000     1.793000000    -7.904000000
H     0.131000000     1.317000000    -7.184000000
H     0.369000000     1.777000000    -8.606000000
O    -0.492000000    -4.073000000    -5.168000000
H     0.245000000    -4.283000000    -4.595000000
H    -0.200000000    -4.337000000    -6.041000000
O     0.655000000    -0.410000000    -6.271000000
H     1.182000000     0.284000000    -5.875000000
H     1.198000000    -1.195000000    -6.197000000
O     4.318000000     3.142000000    -9.182000000
H     5.072000000     2.763000000    -8.730000000
H     4.126000000     3.944000000    -8.697000000
O     6.226000000    -2.717000000    -7.517000000
H     7.162000000    -2.522000000    -7.479000000
H     5.911000000    -2.554000000    -6.627000000
