215
-1449.57426
C     4.836000000    -1.515000000    -0.599000000
H     4.108000000    -2.256000000    -0.917000000
C     4.836000000    -1.195000000     0.761000000
C     5.705000000    -0.199000000     1.291000000
H     5.772000000     0.010000000     2.355000000
C     3.790000000    -1.872000000     1.616000000
O     3.726000000    -3.314000000     1.352000000
H     2.835000000    -1.426000000     1.304000000
O     3.982000000    -1.599000000     3.003000000
C     2.925000000    -1.125000000     3.694000000
C     2.791000000     0.243000000     3.824000000
H     3.507000000     0.925000000     3.372000000
C     1.612000000     0.768000000     4.401000000
O     1.411000000     2.170000000     4.369000000
C     0.632000000    -0.128000000     4.861000000
C    -0.604000000     0.458000000     5.531000000
H    -0.947000000    -0.226000000     6.309000000
C    -1.701000000     0.806000000     4.437000000
C    -2.641000000    -0.177000000     4.166000000
H    -2.567000000    -1.078000000     4.770000000
H    -0.226000000     1.344000000     6.046000000
C     0.844000000    -1.493000000     4.764000000
H     0.046000000    -2.114000000     5.163000000
C     2.010000000    -2.026000000     4.233000000
C     2.190000000    -3.543000000     3.977000000
H     1.585000000    -4.020000000     4.750000000
H     3.235000000    -3.842000000     4.088000000
C     1.631000000    -3.884000000     2.619000000
C     0.306000000    -4.243000000     2.583000000
H    -0.271000000    -4.293000000     3.502000000
C     2.387000000    -3.790000000     1.404000000
C     1.775000000    -4.029000000     0.189000000
H     2.297000000    -3.875000000    -0.751000000
C     0.420000000    -4.396000000     0.115000000
O    -0.106000000    -4.467000000    -1.200000000
C    -1.143000000    -3.571000000    -1.470000000
C    -1.023000000    -3.156000000    -2.875000000
C    -2.111000000    -3.159000000    -3.772000000
H    -3.097000000    -3.522000000    -3.491000000
C     0.262000000    -2.765000000    -3.308000000
H     1.161000000    -2.934000000    -2.721000000
O    -2.392000000    -4.212000000    -1.234000000
H    -1.053000000    -2.660000000    -0.859000000
C    -0.284000000    -4.549000000     1.325000000
C    -1.848000000    -4.952000000     1.326000000
H    -2.031000000    -5.506000000     2.248000000
H    -1.894000000    -5.775000000     0.610000000
C    -2.821000000    -3.841000000     1.048000000
C    -3.368000000    -3.150000000     2.076000000
H    -3.089000000    -3.346000000     3.108000000
C    -3.159000000    -3.557000000    -0.282000000
C    -4.035000000    -2.461000000    -0.571000000
H    -4.172000000    -2.128000000    -1.597000000
C    -4.503000000    -1.698000000     0.472000000
O    -5.210000000    -0.528000000     0.098000000
C    -4.483000000     0.681000000     0.211000000
C    -4.727000000     1.510000000    -0.975000000
C    -5.182000000     0.922000000    -2.207000000
H    -5.417000000    -0.138000000    -2.143000000
C    -4.321000000     2.792000000    -1.123000000
H    -3.852000000     3.221000000    -0.241000000
O    -4.675000000     1.327000000     1.470000000
H    -3.413000000     0.427000000     0.182000000
C    -4.206000000    -2.030000000     1.848000000
C    -4.616000000    -1.154000000     2.995000000
H    -4.732000000    -1.838000000     3.838000000
H    -5.551000000    -0.664000000     2.716000000
C    -3.595000000    -0.045000000     3.182000000
C    -3.661000000     1.144000000     2.481000000
C    -2.742000000     2.149000000     2.705000000
H    -2.787000000     3.064000000     2.120000000
C    -1.770000000     1.978000000     3.726000000
O    -0.689000000     2.830000000     3.726000000
C     0.551000000     2.483000000     3.242000000
H     0.340000000     1.660000000     2.543000000
C     1.167000000     3.576000000     2.349000000
C     2.542000000     3.920000000     2.542000000
H     3.061000000     3.583000000     3.436000000
C     0.464000000     4.008000000     1.227000000
H    -0.538000000     3.656000000     0.997000000
C     1.057000000     4.834000000     0.303000000
O     0.321000000     5.204000000    -0.779000000
C     2.385000000     5.260000000     0.537000000
H     2.821000000     6.004000000    -0.124000000
C     3.115000000     4.797000000     1.531000000
O     4.472000000     5.180000000     1.563000000
C     5.522000000     4.440000000     1.999000000
C     5.746000000     3.182000000     1.511000000
H     5.013000000     2.753000000     0.833000000
C     6.419000000     4.999000000     2.920000000
H     6.201000000     5.999000000     3.286000000
C     7.673000000     4.449000000     3.181000000
H     8.327000000     4.988000000     3.862000000
C     7.945000000     3.191000000     2.599000000
H     8.937000000     2.751000000     2.649000000
C     7.004000000     2.583000000     1.685000000
O     7.399000000     1.451000000     0.973000000
C     6.572000000     0.491000000     0.401000000
C     6.633000000     0.187000000    -0.926000000
H     7.336000000     0.587000000    -1.652000000
C     5.798000000    -0.895000000    -1.447000000
O     5.770000000    -1.106000000    -2.829000000
C     4.826000000    -1.942000000    -3.407000000
C     3.588000000    -1.490000000    -3.926000000
H     3.286000000    -0.448000000    -3.858000000
C     5.156000000    -3.280000000    -3.512000000
H     6.116000000    -3.605000000    -3.117000000
C     4.306000000    -4.208000000    -4.072000000
H     4.588000000    -5.257000000    -4.047000000
C     3.144000000    -3.794000000    -4.720000000
H     2.566000000    -4.524000000    -5.280000000
C     2.811000000    -2.458000000    -4.637000000
O     1.647000000    -1.967000000    -5.152000000
C     0.400000000    -2.366000000    -4.665000000
C    -0.715000000    -2.344000000    -5.500000000
H    -0.595000000    -1.944000000    -6.503000000
C    -1.949000000    -2.801000000    -5.086000000
O    -3.018000000    -2.718000000    -5.911000000
C    -4.270000000    -2.164000000    -5.577000000
C    -4.436000000    -0.830000000    -5.125000000
H    -3.512000000    -0.334000000    -4.841000000
C    -5.426000000    -2.877000000    -5.877000000
H    -5.322000000    -3.867000000    -6.313000000
C    -6.697000000    -2.345000000    -5.728000000
H    -7.496000000    -2.953000000    -6.145000000
C    -6.821000000    -1.059000000    -5.183000000
H    -7.801000000    -0.590000000    -5.182000000
C    -5.692000000    -0.288000000    -4.919000000
O    -5.838000000     1.070000000    -4.524000000
C    -5.254000000     1.626000000    -3.394000000
C    -5.122000000     2.998000000    -3.404000000
H    -5.167000000     3.483000000    -4.375000000
C    -4.531000000     3.556000000    -2.284000000
O    -4.218000000     4.856000000    -2.459000000
C    -3.260000000     5.388000000    -1.619000000
C    -3.723000000     6.351000000    -0.704000000
H    -4.740000000     6.714000000    -0.582000000
C    -2.841000000     6.923000000     0.145000000
H    -3.099000000     7.683000000     0.878000000
C    -1.481000000     6.511000000     0.131000000
H    -0.923000000     6.968000000     0.944000000
C    -0.995000000     5.563000000    -0.767000000
C    -1.913000000     4.966000000    -1.709000000
H    -1.506000000     4.240000000    -2.409000000
C    -0.550000000     0.461000000    -1.751000000
H    -1.283000000     0.502000000    -2.553000000
C    -0.894000000    -0.147000000    -0.603000000
H    -1.802000000    -0.734000000    -0.492000000
C    -0.063000000     0.017000000     0.497000000
H    -0.320000000    -0.398000000     1.459000000
C     1.087000000     0.745000000     0.304000000
H     1.691000000     0.801000000     1.206000000
C     1.499000000     1.209000000    -0.957000000
H     2.416000000     1.783000000    -1.063000000
C     0.605000000     1.161000000    -2.004000000
C     0.844000000     1.828000000    -3.356000000
O     1.751000000     2.637000000    -3.516000000
O    -0.050000000     1.849000000    -4.207000000
O     5.666000000     1.705000000    -3.596000000
H     6.294000000     1.950000000    -4.275000000
H     5.850000000     0.782000000    -3.422000000
O     5.052000000     6.306000000    -1.869000000
H     5.119000000     5.733000000    -1.104000000
H     4.334000000     5.937000000    -2.383000000
O     4.014000000     6.975000000    -5.129000000
H     3.512000000     7.094000000    -5.936000000
H     4.071000000     6.026000000    -5.020000000
O     4.896000000     3.575000000    -1.720000000
H     5.125000000     2.891000000    -2.349000000
H     3.972000000     3.756000000    -1.889000000
O     1.769000000     7.410000000    -7.250000000
H     1.323000000     6.702000000    -6.784000000
H     2.365000000     6.963000000    -7.851000000
O     4.472000000     4.161000000    -4.959000000
H     4.032000000     4.214000000    -4.110000000
H     4.299000000     3.270000000    -5.262000000
O    -1.031000000     7.898000000    -2.983000000
H    -1.216000000     7.064000000    -2.550000000
H    -0.978000000     8.532000000    -2.268000000
O    -2.207000000    -0.188000000    -8.676000000
H    -1.310000000    -0.521000000    -8.680000000
H    -2.754000000    -0.973000000    -8.682000000
O     1.284000000     3.855000000    -8.273000000
H     1.110000000     3.965000000    -7.338000000
H     0.521000000     3.382000000    -8.604000000
O     2.527000000     4.977000000    -2.624000000
H     1.934000000     5.005000000    -1.873000000
H     2.137000000     4.331000000    -3.213000000
O     2.404000000     0.924000000    -8.894000000
H     1.650000000     0.339000000    -8.807000000
H     2.152000000     1.712000000    -8.412000000
O     0.103000000     1.058000000    -6.906000000
H    -0.238000000     1.355000000    -6.062000000
H    -0.652000000     0.664000000    -7.343000000
O     3.333000000    -2.173000000    -7.534000000
H     2.676000000    -2.811000000    -7.815000000
H     2.918000000    -1.705000000    -6.810000000
O     0.347000000     4.601000000    -5.833000000
H     0.465000000     4.165000000    -4.989000000
H    -0.597000000     4.743000000    -5.899000000
O    -3.227000000     5.589000000    -4.993000000
H    -3.556000000     5.815000000    -4.123000000
H    -2.826000000     4.727000000    -4.882000000
O     2.737000000     1.860000000    -6.137000000
H     2.391000000     1.954000000    -5.249000000
H     1.963000000     1.707000000    -6.680000000
O    -2.124000000     2.996000000    -4.951000000
H    -1.417000000     2.482000000    -4.563000000
H    -2.574000000     2.384000000    -5.533000000
O    -3.535000000     1.521000000    -6.951000000
H    -4.377000000     1.068000000    -6.988000000
H    -2.997000000     1.083000000    -7.610000000
O     5.798000000     0.511000000    -7.221000000
H     5.670000000    -0.074000000    -7.967000000
H     4.930000000     0.879000000    -7.055000000
