215
-1458.56876
C    -4.583000000     1.298000000    -1.000000000
H    -3.978000000     2.199000000    -0.931000000
C    -4.751000000     0.464000000     0.156000000
C    -5.610000000    -0.643000000    -0.029000000
H    -5.885000000    -1.273000000     0.812000000
C    -3.965000000     0.744000000     1.398000000
O    -3.992000000     2.113000000     1.886000000
H    -2.915000000     0.495000000     1.183000000
O    -4.507000000     0.006000000     2.469000000
C    -3.495000000    -0.658000000     3.096000000
C    -3.211000000    -2.005000000     2.720000000
H    -3.650000000    -2.563000000     1.896000000
C    -2.179000000    -2.675000000     3.334000000
O    -1.678000000    -3.777000000     2.723000000
C    -1.387000000    -2.035000000     4.307000000
C    -0.054000000    -2.681000000     4.832000000
H     0.085000000    -2.579000000     5.911000000
C     1.166000000    -2.373000000     4.009000000
C     1.998000000    -1.249000000     4.289000000
H     1.787000000    -0.530000000     5.077000000
H    -0.188000000    -3.754000000     4.684000000
C    -1.711000000    -0.785000000     4.707000000
H    -1.110000000    -0.272000000     5.452000000
C    -2.710000000    -0.065000000     4.131000000
C    -2.959000000     1.402000000     4.563000000
H    -2.535000000     1.642000000     5.540000000
H    -4.011000000     1.686000000     4.492000000
C    -2.231000000     2.291000000     3.578000000
C    -0.996000000     2.795000000     3.935000000
H    -0.572000000     2.536000000     4.901000000
C    -2.851000000     2.693000000     2.321000000
C    -2.144000000     3.508000000     1.487000000
H    -2.656000000     3.929000000     0.625000000
C    -0.908000000     4.066000000     1.866000000
O    -0.222000000     4.841000000     0.996000000
C     0.786000000     4.206000000     0.329000000
C     0.760000000     4.497000000    -1.143000000
C     1.968000000     4.711000000    -1.834000000
H     2.881000000     4.648000000    -1.248000000
C    -0.412000000     4.521000000    -1.902000000
H    -1.386000000     4.431000000    -1.428000000
O     2.127000000     4.420000000     0.832000000
H     0.633000000     3.119000000     0.395000000
C    -0.318000000     3.606000000     3.085000000
C     1.104000000     4.069000000     3.493000000
H     0.991000000     4.061000000     4.579000000
H     1.282000000     5.123000000     3.274000000
C     2.187000000     3.137000000     2.921000000
C     2.663000000     2.075000000     3.668000000
H     2.304000000     1.860000000     4.671000000
C     2.646000000     3.427000000     1.610000000
C     3.730000000     2.594000000     1.066000000
H     4.073000000     2.726000000     0.043000000
C     4.194000000     1.538000000     1.845000000
O     5.032000000     0.599000000     1.235000000
C     4.285000000    -0.509000000     0.697000000
C     4.701000000    -0.815000000    -0.793000000
C     4.852000000     0.167000000    -1.733000000
H     4.522000000     1.180000000    -1.516000000
C     4.904000000    -2.157000000    -1.241000000
H     4.762000000    -3.010000000    -0.582000000
O     4.378000000    -1.626000000     1.530000000
H     3.247000000    -0.148000000     0.741000000
C     3.657000000     1.298000000     3.118000000
C     4.069000000     0.082000000     3.850000000
H     3.955000000     0.261000000     4.921000000
H     5.095000000    -0.273000000     3.734000000
C     3.116000000    -1.043000000     3.502000000
C     3.387000000    -1.879000000     2.405000000
C     2.610000000    -2.950000000     2.105000000
H     2.801000000    -3.652000000     1.298000000
C     1.504000000    -3.222000000     2.922000000
O     0.616000000    -4.171000000     2.441000000
C    -0.567000000    -3.520000000     1.859000000
H    -0.301000000    -2.465000000     1.699000000
C    -0.878000000    -4.194000000     0.483000000
C    -2.222000000    -4.444000000     0.141000000
H    -3.071000000    -4.237000000     0.787000000
C     0.153000000    -4.350000000    -0.423000000
H     1.150000000    -4.067000000    -0.095000000
C    -0.122000000    -4.861000000    -1.670000000
O     0.820000000    -5.024000000    -2.688000000
C    -1.420000000    -5.176000000    -2.011000000
H    -1.567000000    -5.470000000    -3.047000000
C    -2.495000000    -5.019000000    -1.141000000
O    -3.724000000    -5.447000000    -1.494000000
C    -4.852000000    -4.905000000    -0.995000000
C    -5.335000000    -3.752000000    -1.551000000
H    -4.720000000    -3.215000000    -2.268000000
C    -5.599000000    -5.644000000    -0.113000000
H    -5.125000000    -6.516000000     0.329000000
C    -6.796000000    -5.138000000     0.411000000
H    -7.357000000    -5.667000000     1.178000000
C    -7.271000000    -3.933000000    -0.081000000
H    -8.216000000    -3.509000000     0.250000000
C    -6.526000000    -3.210000000    -1.020000000
O    -6.987000000    -2.022000000    -1.511000000
C    -6.246000000    -0.877000000    -1.253000000
C    -6.053000000     0.022000000    -2.328000000
H    -6.471000000    -0.130000000    -3.320000000
C    -5.267000000     1.134000000    -2.180000000
O    -4.971000000     1.894000000    -3.299000000
C    -4.515000000     3.143000000    -3.168000000
C    -3.199000000     3.406000000    -3.537000000
H    -2.460000000     2.664000000    -3.826000000
C    -5.427000000     4.171000000    -2.848000000
H    -6.448000000     3.932000000    -2.563000000
C    -4.991000000     5.470000000    -3.033000000
H    -5.771000000     6.227000000    -3.073000000
C    -3.714000000     5.749000000    -3.437000000
H    -3.415000000     6.752000000    -3.731000000
C    -2.819000000     4.695000000    -3.596000000
O    -1.543000000     4.943000000    -3.957000000
C    -0.405000000     4.750000000    -3.266000000
C     0.836000000     5.027000000    -3.878000000
H     0.899000000     5.069000000    -4.963000000
C     2.002000000     5.029000000    -3.172000000
O     3.215000000     5.202000000    -3.836000000
C     4.343000000     4.452000000    -3.587000000
C     4.249000000     3.055000000    -3.789000000
H     3.289000000     2.643000000    -4.089000000
C     5.561000000     4.948000000    -3.257000000
H     5.622000000     6.013000000    -3.050000000
C     6.737000000     4.208000000    -2.952000000
H     7.682000000     4.678000000    -2.689000000
C     6.662000000     2.789000000    -3.197000000
H     7.523000000     2.142000000    -3.052000000
C     5.431000000     2.257000000    -3.619000000
O     5.403000000     0.926000000    -3.995000000
C     5.347000000    -0.128000000    -2.996000000
C     5.545000000    -1.435000000    -3.432000000
H     5.850000000    -1.704000000    -4.440000000
C     5.169000000    -2.426000000    -2.579000000
O     5.328000000    -3.730000000    -3.001000000
C     4.422000000    -4.657000000    -2.544000000
C     4.752000000    -5.676000000    -1.674000000
H     5.806000000    -5.864000000    -1.490000000
C     3.782000000    -6.610000000    -1.273000000
H     4.017000000    -7.559000000    -0.796000000
C     2.496000000    -6.347000000    -1.584000000
H     1.686000000    -7.018000000    -1.308000000
C     2.113000000    -5.202000000    -2.320000000
C     3.109000000    -4.359000000    -2.816000000
H     2.799000000    -3.611000000    -3.542000000
C     1.539000000    -0.911000000    -1.946000000
H     2.355000000    -1.566000000    -2.241000000
C     0.888000000    -0.966000000    -0.701000000
H     1.177000000    -1.700000000     0.047000000
C    -0.149000000    -0.149000000    -0.360000000
H    -0.679000000    -0.314000000     0.633000000
C    -0.452000000     0.842000000    -1.232000000
H    -1.247000000     1.527000000    -0.949000000
C     0.134000000     0.937000000    -2.510000000
H    -0.137000000     1.780000000    -3.141000000
C     1.119000000     0.032000000    -2.914000000
C     1.581000000    -0.050000000    -4.307000000
O     1.283000000     0.750000000    -5.150000000
O     1.981000000    -1.160000000    -4.695000000
O     0.454000000    -3.209000000    -9.115000000
H     0.063000000    -2.678000000    -8.421000000
H     0.202000000    -4.107000000    -8.900000000
O     2.981000000    -1.645000000    -7.383000000
H     2.977000000    -1.346000000    -6.474000000
H     2.070000000    -1.568000000    -7.666000000
O     3.446000000     5.619000000    -7.573000000
H     4.253000000     5.854000000    -8.031000000
H     3.742000000     5.191000000    -6.770000000
O     1.099000000     4.054000000    -8.053000000
H     1.386000000     3.628000000    -8.861000000
H     1.787000000     4.690000000    -7.860000000
O     2.720000000    -6.052000000    -5.404000000
H     2.175000000    -6.795000000    -5.663000000
H     2.095000000    -5.370000000    -5.158000000
O     4.523000000     2.924000000    -9.833000000
H     3.675000000     2.544000000    -9.603000000
H     5.164000000     2.360000000    -9.400000000
O     7.344000000     1.912000000    -5.969000000
H     8.296000000     1.843000000    -6.036000000
H     7.100000000     1.244000000    -5.329000000
O    -1.661000000     4.347000000    -8.018000000
H    -1.459000000     5.115000000    -8.551000000
H    -0.807000000     3.973000000    -7.802000000
O    -0.289000000     2.169000000    -6.683000000
H     0.170000000     2.907000000    -7.086000000
H     0.385000000     1.714000000    -6.180000000
O     3.165000000     1.001000000    -6.980000000
H     3.426000000     0.081000000    -7.035000000
H     2.477000000     1.015000000    -6.315000000
O    -2.029000000    -1.459000000    -2.614000000
H    -1.406000000    -2.155000000    -2.406000000
H    -1.586000000    -0.653000000    -2.348000000
O    -2.252000000     0.564000000    -7.205000000
H    -3.114000000     0.981000000    -7.223000000
H    -1.647000000     1.272000000    -6.987000000
O     2.144000000     1.631000000    -9.388000000
H     1.531000000     0.908000000    -9.520000000
H     2.337000000     1.613000000    -8.450000000
O    -2.306000000    -1.535000000    -9.196000000
H    -1.944000000    -1.382000000   -10.069000000
H    -2.221000000    -0.693000000    -8.750000000
O     0.772000000    -3.507000000    -5.428000000
H    -0.053000000    -3.077000000    -5.655000000
H     1.331000000    -2.800000000    -5.108000000
O    -3.465000000    -1.043000000    -4.850000000
H    -2.908000000    -0.993000000    -5.627000000
H    -2.867000000    -0.899000000    -4.117000000
O     0.149000000    -0.909000000    -6.989000000
H     0.583000000    -0.472000000    -6.256000000
H    -0.681000000    -0.441000000    -7.088000000
O     4.882000000     3.002000000    -6.898000000
H     5.514000000     2.671000000    -6.260000000
H     4.197000000     2.334000000    -6.925000000
O     4.729000000    -3.656000000    -8.074000000
H     4.168000000    -2.971000000    -7.709000000
H     4.593000000    -4.409000000    -7.499000000
