215
-1433.09321
C    -4.449000000     1.461000000    -0.286000000
H    -3.921000000     2.410000000    -0.337000000
C    -4.465000000     0.696000000     0.922000000
C    -5.110000000    -0.523000000     0.937000000
H    -5.065000000    -1.085000000     1.867000000
C    -3.558000000     1.050000000     2.143000000
O    -3.606000000     2.461000000     2.457000000
H    -2.573000000     0.716000000     1.783000000
O    -3.902000000     0.259000000     3.317000000
C    -2.904000000    -0.369000000     3.956000000
C    -2.729000000    -1.741000000     3.614000000
H    -3.423000000    -2.245000000     2.946000000
C    -1.575000000    -2.384000000     3.986000000
O    -1.396000000    -3.510000000     3.235000000
C    -0.565000000    -1.724000000     4.735000000
C     0.790000000    -2.413000000     5.083000000
H     1.138000000    -1.892000000     5.977000000
C     1.740000000    -2.155000000     3.957000000
C     2.756000000    -1.242000000     4.138000000
H     2.768000000    -0.602000000     5.016000000
H     0.666000000    -3.457000000     5.378000000
C    -0.718000000    -0.390000000     5.072000000
H     0.015000000     0.133000000     5.681000000
C    -1.836000000     0.268000000     4.589000000
C    -1.975000000     1.804000000     4.860000000
H    -1.319000000     1.891000000     5.729000000
H    -3.024000000     2.038000000     5.049000000
C    -1.481000000     2.668000000     3.703000000
C    -0.215000000     3.130000000     3.772000000
H     0.404000000     2.763000000     4.588000000
C    -2.299000000     3.000000000     2.629000000
C    -1.870000000     3.798000000     1.613000000
H    -2.483000000     4.013000000     0.742000000
C    -0.550000000     4.288000000     1.704000000
O     0.038000000     4.975000000     0.673000000
C     0.852000000     4.074000000    -0.157000000
C     0.572000000     4.098000000    -1.621000000
C     1.458000000     3.671000000    -2.546000000
H     2.433000000     3.300000000    -2.242000000
C    -0.655000000     4.566000000    -2.054000000
H    -1.346000000     4.960000000    -1.314000000
O     2.235000000     4.429000000     0.085000000
H     0.714000000     3.029000000     0.159000000
C     0.263000000     4.062000000     2.802000000
C     1.717000000     4.561000000     2.961000000
H     2.013000000     4.670000000     4.007000000
H     1.808000000     5.502000000     2.416000000
C     2.663000000     3.580000000     2.281000000
C     3.184000000     2.513000000     3.006000000
H     2.897000000     2.446000000     4.052000000
C     2.907000000     3.627000000     0.943000000
C     3.759000000     2.690000000     0.297000000
H     4.123000000     2.872000000    -0.711000000
C     4.210000000     1.608000000     1.023000000
O     5.064000000     0.755000000     0.329000000
C     4.372000000    -0.438000000    -0.123000000
C     4.909000000    -1.002000000    -1.428000000
C     5.573000000    -0.055000000    -2.298000000
H     5.828000000     0.961000000    -2.008000000
C     4.722000000    -2.293000000    -1.878000000
H     4.055000000    -2.932000000    -1.306000000
O     4.561000000    -1.340000000     0.960000000
H     3.317000000    -0.248000000    -0.371000000
C     3.887000000     1.485000000     2.381000000
C     4.461000000     0.419000000     3.179000000
H     4.517000000     0.717000000     4.228000000
H     5.477000000     0.117000000     2.917000000
C     3.644000000    -0.855000000     3.117000000
C     3.588000000    -1.556000000     1.990000000
C     2.646000000    -2.575000000     1.762000000
H     2.735000000    -3.086000000     0.806000000
C     1.679000000    -2.921000000     2.801000000
O     0.764000000    -3.949000000     2.506000000
C    -0.478000000    -3.410000000     2.120000000
H    -0.324000000    -2.390000000     1.737000000
C    -1.077000000    -4.145000000     0.900000000
C    -2.399000000    -4.626000000     0.726000000
H    -3.083000000    -4.380000000     1.534000000
C    -0.226000000    -4.349000000    -0.201000000
H     0.767000000    -3.990000000     0.058000000
C    -0.620000000    -4.978000000    -1.418000000
O     0.314000000    -5.194000000    -2.442000000
C    -1.936000000    -5.435000000    -1.484000000
H    -2.187000000    -6.016000000    -2.368000000
C    -2.854000000    -5.232000000    -0.422000000
O    -4.187000000    -5.596000000    -0.649000000
C    -5.295000000    -5.036000000    -0.032000000
C    -5.615000000    -3.703000000    -0.291000000
H    -5.037000000    -3.078000000    -0.967000000
C    -6.308000000    -5.761000000     0.696000000
H    -6.173000000    -6.829000000     0.849000000
C    -7.416000000    -5.102000000     1.265000000
H    -8.284000000    -5.629000000     1.652000000
C    -7.609000000    -3.759000000     1.082000000
H    -8.445000000    -3.169000000     1.448000000
C    -6.685000000    -3.044000000     0.335000000
O    -6.951000000    -1.718000000     0.057000000
C    -5.938000000    -0.797000000    -0.105000000
C    -6.038000000    -0.069000000    -1.241000000
H    -6.855000000    -0.241000000    -1.938000000
C    -5.282000000     1.109000000    -1.329000000
O    -5.175000000     1.764000000    -2.554000000
C    -4.931000000     3.078000000    -2.738000000
C    -3.718000000     3.440000000    -3.289000000
H    -3.089000000     2.589000000    -3.539000000
C    -5.810000000     4.096000000    -2.340000000
H    -6.720000000     3.887000000    -1.785000000
C    -5.470000000     5.424000000    -2.482000000
H    -6.142000000     6.203000000    -2.132000000
C    -4.212000000     5.717000000    -2.981000000
H    -3.962000000     6.771000000    -3.068000000
C    -3.343000000     4.767000000    -3.484000000
O    -2.107000000     5.129000000    -3.922000000
C    -0.966000000     4.641000000    -3.435000000
C    -0.081000000     4.062000000    -4.339000000
H    -0.387000000     3.985000000    -5.380000000
C     1.181000000     3.602000000    -3.899000000
O     2.037000000     3.078000000    -4.834000000
C     3.383000000     3.114000000    -4.748000000
C     4.074000000     1.870000000    -4.712000000
H     3.559000000     0.934000000    -4.911000000
C     4.098000000     4.220000000    -4.494000000
H     3.539000000     5.134000000    -4.310000000
C     5.496000000     4.172000000    -4.392000000
H     6.034000000     5.056000000    -4.057000000
C     6.230000000     2.996000000    -4.421000000
H     7.314000000     2.982000000    -4.344000000
C     5.503000000     1.817000000    -4.542000000
O     6.265000000     0.624000000    -4.457000000
C     5.878000000    -0.434000000    -3.623000000
C     5.790000000    -1.766000000    -4.003000000
H     5.920000000    -2.046000000    -5.046000000
C     5.216000000    -2.700000000    -3.153000000
O     4.838000000    -3.978000000    -3.623000000
C     3.961000000    -4.732000000    -2.968000000
C     4.376000000    -5.782000000    -2.179000000
H     5.430000000    -5.998000000    -2.025000000
C     3.491000000    -6.493000000    -1.382000000
H     3.878000000    -7.315000000    -0.785000000
C     2.129000000    -6.299000000    -1.381000000
H     1.448000000    -6.951000000    -0.840000000
C     1.661000000    -5.329000000    -2.252000000
C     2.563000000    -4.557000000    -3.081000000
H     2.199000000    -3.789000000    -3.759000000
C     0.851000000    -1.323000000    -1.815000000
H     1.262000000    -2.322000000    -1.928000000
C     0.699000000    -0.780000000    -0.512000000
H     1.124000000    -1.338000000     0.318000000
C     0.016000000     0.362000000    -0.257000000
H    -0.189000000     0.723000000     0.758000000
C    -0.699000000     0.985000000    -1.279000000
H    -1.317000000     1.815000000    -0.948000000
C    -0.657000000     0.514000000    -2.596000000
H    -1.178000000     0.979000000    -3.429000000
C     0.149000000    -0.632000000    -2.878000000
C     0.374000000    -1.043000000    -4.350000000
O    -0.220000000    -0.549000000    -5.264000000
O     1.077000000    -1.987000000    -4.583000000
O     3.119000000    -1.862000000    -6.190000000
H     2.366000000    -1.704000000    -5.621000000
H     2.962000000    -2.730000000    -6.561000000
O     1.127000000     2.647000000    -8.267000000
H     0.277000000     2.522000000    -7.844000000
H     1.358000000     1.780000000    -8.601000000
O    -2.747000000    -2.853000000    -8.773000000
H    -2.467000000    -2.646000000    -7.881000000
H    -3.174000000    -2.053000000    -9.081000000
O     1.839000000    -4.217000000    -8.040000000
H     0.915000000    -3.985000000    -8.137000000
H     1.837000000    -5.167000000    -7.926000000
O    -2.139000000     4.506000000    -7.560000000
H    -2.001000000     4.762000000    -8.472000000
H    -1.815000000     3.607000000    -7.512000000
O    -0.980000000     1.822000000    -6.819000000
H    -1.852000000     1.772000000    -6.427000000
H    -0.412000000     1.365000000    -6.199000000
O     4.776000000     0.198000000    -7.236000000
H     5.591000000    -0.286000000    -7.371000000
H     4.277000000    -0.340000000    -6.622000000
O    -2.296000000    -1.872000000    -1.812000000
H    -1.901000000    -2.738000000    -1.714000000
H    -1.791000000    -1.310000000    -1.225000000
O    -2.352000000    -1.927000000    -6.224000000
H    -2.999000000    -1.222000000    -6.191000000
H    -1.648000000    -1.634000000    -5.646000000
O    -2.633000000    -4.106000000    -4.209000000
H    -2.127000000    -3.750000000    -4.939000000
H    -3.394000000    -3.530000000    -4.142000000
O     1.881000000    -0.007000000    -8.971000000
H     1.138000000    -0.581000000    -8.785000000
H     2.506000000    -0.187000000    -8.268000000
O    -3.589000000    -6.615000000    -5.501000000
H    -3.994000000    -6.287000000    -6.304000000
H    -2.947000000    -5.946000000    -5.266000000
O     1.649000000    -6.430000000    -5.539000000
H     1.067000000    -5.676000000    -5.628000000
H     1.307000000    -6.908000000    -4.783000000
O     4.986000000    -4.299000000    -6.436000000
H     4.554000000    -3.870000000    -5.697000000
H     5.750000000    -3.752000000    -6.617000000
O    -2.091000000     0.686000000    -9.129000000
H    -1.676000000     0.430000000    -8.306000000
H    -1.941000000     1.629000000    -9.191000000
O     0.100000000    -4.259000000    -5.282000000
H    -0.188000000    -4.468000000    -4.394000000
H     0.521000000    -3.403000000    -5.202000000
O    -4.413000000    -1.973000000    -3.509000000
H    -4.361000000    -1.317000000    -4.204000000
H    -3.889000000    -1.608000000    -2.796000000
O     0.076000000    -1.512000000    -7.782000000
H    -0.088000000    -0.881000000    -7.081000000
H    -0.317000000    -2.326000000    -7.468000000
O    -4.303000000     0.189000000    -5.594000000
H    -4.296000000     1.114000000    -5.838000000
H    -5.205000000    -0.092000000    -5.747000000
