215
-1440.92153
C    -4.814000000     0.599000000    -1.909000000
H    -4.870000000     1.613000000    -1.520000000
C    -4.145000000    -0.297000000    -1.102000000
C    -3.952000000    -1.567000000    -1.615000000
H    -3.403000000    -2.232000000    -0.953000000
C    -3.923000000     0.097000000     0.370000000
O    -4.518000000     1.376000000     0.703000000
H    -2.824000000     0.125000000     0.401000000
O    -4.424000000    -0.881000000     1.245000000
C    -3.631000000    -1.318000000     2.281000000
C    -3.059000000    -2.550000000     2.252000000
H    -3.303000000    -3.307000000     1.512000000
C    -2.225000000    -3.018000000     3.257000000
O    -1.464000000    -4.154000000     2.921000000
C    -1.863000000    -2.103000000     4.270000000
C    -0.564000000    -2.346000000     5.065000000
H    -0.740000000    -1.870000000     6.032000000
C     0.702000000    -1.807000000     4.475000000
C     1.124000000    -0.529000000     4.863000000
H     0.406000000     0.105000000     5.377000000
H    -0.435000000    -3.399000000     5.322000000
C    -2.580000000    -0.904000000     4.370000000
H    -2.443000000    -0.277000000     5.248000000
C    -3.517000000    -0.496000000     3.411000000
C    -4.100000000     0.916000000     3.508000000
H    -4.019000000     1.191000000     4.561000000
H    -5.166000000     0.830000000     3.286000000
C    -3.425000000     2.017000000     2.714000000
C    -2.436000000     2.878000000     3.221000000
H    -2.153000000     2.625000000     4.240000000
C    -3.715000000     2.234000000     1.369000000
C    -3.266000000     3.346000000     0.628000000
H    -3.516000000     3.515000000    -0.417000000
C    -2.343000000     4.195000000     1.221000000
O    -1.553000000     4.938000000     0.443000000
C    -0.362000000     4.344000000    -0.039000000
C    -0.139000000     4.479000000    -1.516000000
C     1.148000000     4.567000000    -2.054000000
H     1.999000000     4.578000000    -1.377000000
C    -1.209000000     4.478000000    -2.429000000
H    -2.252000000     4.370000000    -2.142000000
O     0.774000000     4.940000000     0.662000000
H    -0.475000000     3.314000000     0.332000000
C    -1.867000000     3.887000000     2.501000000
C    -0.735000000     4.665000000     3.150000000
H    -1.101000000     4.881000000     4.156000000
H    -0.694000000     5.690000000     2.776000000
C     0.656000000     4.040000000     2.942000000
C     1.167000000     3.114000000     3.828000000
H     0.556000000     2.910000000     4.703000000
C     1.374000000     4.302000000     1.707000000
C     2.475000000     3.545000000     1.370000000
H     2.980000000     3.652000000     0.413000000
C     2.968000000     2.624000000     2.281000000
O     4.090000000     1.907000000     1.937000000
C     3.800000000     0.478000000     1.603000000
C     4.687000000     0.038000000     0.375000000
C     4.839000000     0.925000000    -0.689000000
H     4.308000000     1.873000000    -0.655000000
C     5.162000000    -1.260000000     0.154000000
H     4.858000000    -2.032000000     0.856000000
O     4.144000000    -0.316000000     2.748000000
H     2.744000000     0.386000000     1.308000000
C     2.333000000     2.463000000     3.533000000
C     2.896000000     1.441000000     4.573000000
H     2.599000000     1.721000000     5.585000000
H     3.987000000     1.397000000     4.558000000
C     2.356000000     0.044000000     4.319000000
C     3.075000000    -0.789000000     3.525000000
C     2.737000000    -2.123000000     3.214000000
H     3.289000000    -2.782000000     2.549000000
C     1.483000000    -2.614000000     3.584000000
O     1.027000000    -3.907000000     3.087000000
C    -0.174000000    -3.850000000     2.254000000
H    -0.207000000    -2.816000000     1.880000000
C    -0.010000000    -4.853000000     1.075000000
C    -1.083000000    -5.533000000     0.507000000
H    -2.058000000    -5.480000000     0.985000000
C     1.274000000    -4.923000000     0.470000000
H     2.128000000    -4.317000000     0.762000000
C     1.493000000    -5.627000000    -0.729000000
O     2.696000000    -5.822000000    -1.334000000
C     0.382000000    -6.284000000    -1.288000000
H     0.579000000    -6.920000000    -2.148000000
C    -0.876000000    -6.319000000    -0.671000000
O    -1.913000000    -6.928000000    -1.301000000
C    -3.018000000    -6.207000000    -1.542000000
C    -2.905000000    -5.123000000    -2.399000000
H    -1.935000000    -4.862000000    -2.813000000
C    -4.248000000    -6.611000000    -1.096000000
H    -4.290000000    -7.625000000    -0.708000000
C    -5.344000000    -5.769000000    -1.265000000
H    -6.346000000    -6.146000000    -1.075000000
C    -5.267000000    -4.685000000    -2.115000000
H    -6.171000000    -4.091000000    -2.223000000
C    -4.038000000    -4.325000000    -2.679000000
O    -3.950000000    -3.166000000    -3.410000000
C    -4.265000000    -1.916000000    -2.918000000
C    -4.813000000    -1.008000000    -3.723000000
H    -5.125000000    -1.260000000    -4.734000000
C    -5.104000000     0.241000000    -3.219000000
O    -5.453000000     1.268000000    -4.135000000
C    -5.101000000     2.584000000    -4.140000000
C    -3.805000000     2.857000000    -4.347000000
H    -3.098000000     2.132000000    -4.741000000
C    -6.055000000     3.553000000    -3.751000000
H    -7.036000000     3.208000000    -3.434000000
C    -5.688000000     4.859000000    -3.526000000
H    -6.362000000     5.604000000    -3.108000000
C    -4.354000000     5.185000000    -3.893000000
H    -3.992000000     6.194000000    -3.711000000
C    -3.402000000     4.219000000    -4.303000000
O    -2.140000000     4.642000000    -4.622000000
C    -1.066000000     4.536000000    -3.789000000
C     0.239000000     4.771000000    -4.288000000
H     0.441000000     4.839000000    -5.354000000
C     1.346000000     4.750000000    -3.412000000
O     2.575000000     5.033000000    -4.028000000
C     3.831000000     4.631000000    -3.568000000
C     4.105000000     3.318000000    -3.196000000
H     3.283000000     2.608000000    -3.246000000
C     4.879000000     5.569000000    -3.685000000
H     4.596000000     6.575000000    -3.986000000
C     6.135000000     5.206000000    -3.328000000
H     6.880000000     5.988000000    -3.205000000
C     6.405000000     3.861000000    -2.993000000
H     7.397000000     3.488000000    -2.750000000
C     5.391000000     2.861000000    -2.931000000
O     5.716000000     1.485000000    -2.858000000
C     5.548000000     0.531000000    -1.823000000
C     6.194000000    -0.699000000    -1.942000000
H     6.822000000    -0.932000000    -2.799000000
C     5.998000000    -1.620000000    -0.896000000
O     6.460000000    -2.878000000    -1.014000000
C     5.788000000    -3.985000000    -0.601000000
C     6.359000000    -4.864000000     0.374000000
H     7.324000000    -4.495000000     0.713000000
C     5.668000000    -6.018000000     0.765000000
H     6.077000000    -6.662000000     1.540000000
C     4.439000000    -6.240000000     0.249000000
H     3.932000000    -7.100000000     0.680000000
C     3.894000000    -5.453000000    -0.709000000
C     4.578000000    -4.296000000    -1.184000000
H     4.301000000    -3.651000000    -2.014000000
C     2.219000000    -1.113000000    -1.426000000
H     2.999000000    -1.843000000    -1.627000000
C     1.522000000    -1.202000000    -0.172000000
H     1.757000000    -1.962000000     0.569000000
C     0.452000000    -0.376000000     0.066000000
H    -0.066000000    -0.429000000     0.965000000
C     0.098000000     0.545000000    -0.950000000
H    -0.863000000     1.016000000    -0.765000000
C     0.783000000     0.683000000    -2.130000000
H     0.580000000     1.405000000    -2.917000000
C     1.856000000    -0.144000000    -2.363000000
C     2.425000000    -0.132000000    -3.715000000
O     2.085000000     0.689000000    -4.537000000
O     3.098000000    -1.080000000    -4.093000000
O     5.300000000    -1.473000000    -5.576000000
H     6.029000000    -1.999000000    -5.249000000
H     4.743000000    -1.334000000    -4.810000000
O     5.528000000     1.860000000    -9.828000000
H     5.184000000     1.478000000    -9.020000000
H     4.811000000     2.400000000   -10.161000000
O     3.911000000     4.144000000    -7.598000000
H     3.587000000     4.514000000    -8.419000000
H     3.124000000     4.004000000    -7.071000000
O     6.381000000     3.945000000    -6.835000000
H     5.520000000     4.013000000    -7.250000000
H     6.193000000     3.678000000    -5.935000000
O     2.120000000    -0.132000000    -7.206000000
H     2.242000000    -0.200000000    -6.259000000
H     2.998000000     0.037000000    -7.548000000
O     0.233000000    -2.273000000    -7.067000000
H    -0.446000000    -2.077000000    -6.421000000
H     0.796000000    -1.499000000    -7.066000000
O     1.355000000    -6.255000000    -4.709000000
H     1.662000000    -5.475000000    -4.246000000
H     2.049000000    -6.448000000    -5.340000000
O     3.311000000    -2.803000000    -8.364000000
H     3.816000000    -2.601000000    -7.576000000
H     2.553000000    -3.293000000    -8.043000000
O     4.791000000     0.761000000    -7.439000000
H     5.143000000     0.018000000    -6.948000000
H     4.647000000     1.439000000    -6.779000000
O     1.819000000     2.793000000    -6.514000000
H     0.869000000     2.774000000    -6.401000000
H     2.152000000     2.192000000    -5.847000000
O     2.344000000    -3.536000000    -3.880000000
H     2.560000000    -2.605000000    -3.935000000
H     3.184000000    -3.983000000    -3.985000000
O    -0.639000000     0.710000000    -5.405000000
H     0.172000000     0.736000000    -4.897000000
H    -1.003000000    -0.158000000    -5.231000000
O    -1.923000000     1.844000000    -7.549000000
H    -2.639000000     1.271000000    -7.824000000
H    -1.502000000     1.372000000    -6.831000000
O    -0.226000000    -2.816000000    -2.799000000
H     0.500000000    -3.186000000    -3.302000000
H     0.187000000    -2.452000000    -2.016000000
O     4.348000000    -5.687000000    -4.914000000
H     4.107000000    -6.068000000    -5.758000000
H     5.286000000    -5.513000000    -4.988000000
O     7.683000000     0.711000000    -4.674000000
H     6.890000000     0.945000000    -4.191000000
H     8.143000000     1.542000000    -4.795000000
O    -1.682000000    -1.986000000    -4.988000000
H    -2.519000000    -2.437000000    -4.875000000
H    -1.197000000    -2.179000000    -4.186000000
O    -0.005000000     0.539000000    -9.516000000
H     0.797000000     0.418000000    -9.009000000
H    -0.538000000     1.129000000    -8.983000000
O     8.679000000    -1.203000000    -6.576000000
H     9.079000000    -0.511000000    -7.103000000
H     8.151000000    -0.736000000    -5.929000000
