215
-1477.36486
C    -5.236000000     0.614000000    -1.647000000
H    -5.466000000     1.589000000    -1.225000000
C    -4.822000000    -0.453000000    -0.769000000
C    -4.600000000    -1.725000000    -1.375000000
H    -4.257000000    -2.471000000    -0.663000000
C    -4.289000000    -0.101000000     0.640000000
O    -4.678000000     1.200000000     1.085000000
H    -3.193000000    -0.190000000     0.694000000
O    -4.827000000    -1.097000000     1.519000000
C    -3.934000000    -1.486000000     2.491000000
C    -3.340000000    -2.708000000     2.156000000
H    -3.719000000    -3.343000000     1.359000000
C    -2.141000000    -3.082000000     2.837000000
O    -1.443000000    -4.181000000     2.442000000
C    -1.672000000    -2.302000000     3.898000000
C    -0.483000000    -2.675000000     4.713000000
H    -0.677000000    -2.406000000     5.753000000
C     0.770000000    -2.076000000     4.085000000
C     1.251000000    -0.913000000     4.662000000
H     0.711000000    -0.363000000     5.428000000
H    -0.389000000    -3.763000000     4.687000000
C    -2.352000000    -1.128000000     4.290000000
H    -1.983000000    -0.603000000     5.167000000
C    -3.449000000    -0.680000000     3.493000000
C    -4.125000000     0.581000000     3.810000000
H    -3.966000000     0.794000000     4.869000000
H    -5.143000000     0.586000000     3.415000000
C    -3.448000000     1.744000000     3.040000000
C    -2.471000000     2.570000000     3.650000000
H    -2.055000000     2.311000000     4.620000000
C    -3.829000000     1.952000000     1.720000000
C    -3.180000000     2.868000000     0.924000000
H    -3.611000000     3.039000000    -0.060000000
C    -2.126000000     3.621000000     1.444000000
O    -1.458000000     4.451000000     0.571000000
C    -0.156000000     4.014000000     0.068000000
C    -0.022000000     4.156000000    -1.460000000
C     1.263000000     4.176000000    -2.097000000
H     2.207000000     4.111000000    -1.562000000
C    -1.234000000     4.198000000    -2.229000000
H    -2.222000000     4.305000000    -1.791000000
O     0.926000000     4.637000000     0.854000000
H     0.001000000     2.942000000     0.258000000
C    -1.724000000     3.447000000     2.777000000
C    -0.629000000     4.277000000     3.365000000
H    -0.658000000     4.419000000     4.447000000
H    -0.626000000     5.249000000     2.868000000
C     0.674000000     3.572000000     3.083000000
C     1.166000000     2.736000000     4.088000000
H     0.584000000     2.506000000     4.976000000
C     1.408000000     3.849000000     1.917000000
C     2.681000000     3.277000000     1.772000000
H     3.321000000     3.442000000     0.909000000
C     3.132000000     2.448000000     2.715000000
O     4.325000000     1.818000000     2.426000000
C     4.211000000     0.598000000     1.759000000
C     5.235000000     0.524000000     0.582000000
C     5.688000000     1.612000000    -0.187000000
H     5.408000000     2.625000000     0.091000000
C     5.525000000    -0.769000000     0.093000000
H     5.158000000    -1.641000000     0.628000000
O     4.355000000    -0.450000000     2.816000000
H     3.190000000     0.573000000     1.351000000
C     2.406000000     2.123000000     3.901000000
C     2.920000000     1.015000000     4.803000000
H     2.505000000     1.193000000     5.797000000
H     3.985000000     1.054000000     5.040000000
C     2.487000000    -0.311000000     4.294000000
C     3.191000000    -0.986000000     3.281000000
C     2.725000000    -2.159000000     2.692000000
H     3.338000000    -2.627000000     1.925000000
C     1.489000000    -2.763000000     3.092000000
O     0.929000000    -3.961000000     2.676000000
C    -0.143000000    -3.795000000     1.758000000
H    -0.131000000    -2.762000000     1.381000000
C     0.127000000    -4.729000000     0.543000000
C    -0.909000000    -5.411000000    -0.079000000
H    -1.882000000    -5.352000000     0.402000000
C     1.311000000    -4.580000000    -0.143000000
H     2.032000000    -3.861000000     0.238000000
C     1.506000000    -5.160000000    -1.340000000
O     2.688000000    -4.918000000    -1.959000000
C     0.543000000    -5.920000000    -1.962000000
H     0.905000000    -6.410000000    -2.863000000
C    -0.702000000    -6.038000000    -1.347000000
O    -1.720000000    -6.709000000    -1.922000000
C    -2.979000000    -6.173000000    -2.051000000
C    -3.117000000    -4.944000000    -2.675000000
H    -2.202000000    -4.422000000    -2.944000000
C    -4.111000000    -6.878000000    -1.562000000
H    -3.972000000    -7.846000000    -1.087000000
C    -5.375000000    -6.310000000    -1.685000000
H    -6.222000000    -6.889000000    -1.326000000
C    -5.594000000    -5.058000000    -2.249000000
H    -6.601000000    -4.662000000    -2.344000000
C    -4.427000000    -4.358000000    -2.734000000
O    -4.575000000    -3.115000000    -3.321000000
C    -4.901000000    -1.949000000    -2.719000000
C    -5.397000000    -0.883000000    -3.461000000
H    -5.644000000    -1.117000000    -4.493000000
C    -5.525000000     0.351000000    -2.963000000
O    -5.970000000     1.386000000    -3.714000000
C    -5.436000000     2.647000000    -3.648000000
C    -4.168000000     2.867000000    -4.127000000
H    -3.585000000     2.123000000    -4.665000000
C    -6.168000000     3.688000000    -3.101000000
H    -7.110000000     3.478000000    -2.602000000
C    -5.650000000     4.984000000    -3.046000000
H    -6.166000000     5.760000000    -2.487000000
C    -4.297000000     5.168000000    -3.438000000
H    -3.815000000     6.120000000    -3.228000000
C    -3.582000000     4.107000000    -4.048000000
O    -2.268000000     4.291000000    -4.407000000
C    -1.100000000     4.231000000    -3.624000000
C     0.164000000     4.235000000    -4.198000000
H     0.220000000     4.251000000    -5.284000000
C     1.348000000     4.143000000    -3.491000000
O     2.582000000     4.034000000    -4.153000000
C     3.782000000     4.351000000    -3.534000000
C     4.534000000     3.245000000    -3.164000000
H     4.289000000     2.215000000    -3.410000000
C     4.264000000     5.657000000    -3.504000000
H     3.612000000     6.378000000    -3.992000000
C     5.469000000     5.902000000    -2.925000000
H     5.938000000     6.883000000    -2.909000000
C     6.267000000     4.800000000    -2.494000000
H     7.255000000     4.991000000    -2.083000000
C     5.781000000     3.533000000    -2.626000000
O     6.588000000     2.454000000    -2.262000000
C     6.306000000     1.412000000    -1.440000000
C     6.562000000     0.159000000    -1.883000000
H     7.075000000     0.039000000    -2.833000000
C     6.213000000    -0.962000000    -1.183000000
O     6.560000000    -2.234000000    -1.656000000
C     5.949000000    -3.390000000    -1.236000000
C     6.361000000    -4.189000000    -0.146000000
H     7.226000000    -3.974000000     0.476000000
C     5.626000000    -5.349000000     0.207000000
H     5.946000000    -5.960000000     1.048000000
C     4.387000000    -5.510000000    -0.389000000
H     3.833000000    -6.379000000    -0.043000000
C     3.890000000    -4.621000000    -1.353000000
C     4.647000000    -3.557000000    -1.791000000
H     4.195000000    -2.878000000    -2.510000000
C     1.352000000     0.354000000    -1.725000000
H     2.431000000     0.252000000    -1.815000000
C     0.755000000     0.322000000    -0.440000000
H     1.320000000     0.108000000     0.464000000
C    -0.593000000     0.597000000    -0.270000000
H    -1.013000000     0.587000000     0.710000000
C    -1.401000000     0.805000000    -1.406000000
H    -2.395000000     1.204000000    -1.220000000
C    -0.796000000     0.894000000    -2.709000000
H    -1.398000000     1.259000000    -3.537000000
C     0.549000000     0.646000000    -2.851000000
C     1.177000000     0.725000000    -4.209000000
O     0.448000000     0.765000000    -5.170000000
O     2.339000000     0.336000000    -4.282000000
O     4.690000000    -0.469000000    -4.956000000
H     4.399000000    -1.373000000    -5.081000000
H     3.948000000    -0.035000000    -4.536000000
O     4.313000000     3.616000000    -6.654000000
H     4.370000000     4.566000000    -6.762000000
H     3.413000000     3.400000000    -6.899000000
O    -0.421000000     4.197000000    -7.758000000
H     0.193000000     3.525000000    -7.460000000
H    -1.261000000     3.742000000    -7.821000000
O     2.055000000    -0.882000000    -6.764000000
H     1.833000000    -0.341000000    -6.006000000
H     2.896000000    -0.537000000    -7.066000000
O    -0.213000000    -2.588000000    -6.728000000
H    -1.082000000    -2.398000000    -6.373000000
H     0.332000000    -1.861000000    -6.427000000
O     1.436000000    -4.590000000    -5.874000000
H     1.387000000    -4.307000000    -4.961000000
H     0.770000000    -4.069000000    -6.323000000
O     6.054000000     1.558000000    -6.481000000
H     5.646000000     0.963000000    -5.852000000
H     5.458000000     2.306000000    -6.524000000
O     1.609000000     2.464000000    -7.091000000
H     1.203000000     1.865000000    -6.464000000
H     2.279000000     1.938000000    -7.527000000
O     0.855000000    -2.132000000    -9.349000000
H     0.680000000    -2.350000000    -8.433000000
H     1.722000000    -2.498000000    -9.521000000
O     1.908000000    -2.661000000    -3.838000000
H     1.985000000    -1.734000000    -4.064000000
H     2.801000000    -3.000000000    -3.910000000
O    -1.993000000     0.205000000    -6.015000000
H    -1.128000000     0.495000000    -5.726000000
H    -2.111000000    -0.648000000    -5.598000000
O    -2.951000000     2.167000000    -7.463000000
H    -3.848000000     1.976000000    -7.190000000
H    -2.415000000     1.536000000    -6.982000000
O    -0.931000000    -2.274000000    -2.682000000
H    -0.101000000    -2.727000000    -2.828000000
H    -0.680000000    -1.375000000    -2.471000000
O     3.532000000    -0.022000000    -9.489000000
H     3.402000000    -0.967000000    -9.409000000
H     4.452000000     0.113000000    -9.263000000
O     4.794000000    -3.303000000    -4.995000000
H     4.458000000    -3.899000000    -5.664000000
H     5.695000000    -3.124000000    -5.264000000
O     1.733000000     6.061000000    -6.966000000
H     1.110000000     6.506000000    -6.391000000
H     1.267000000     5.281000000    -7.266000000
O    -1.010000000     6.395000000    -6.153000000
H    -1.901000000     6.574000000    -5.855000000
H    -1.055000000     5.516000000    -6.529000000
O    -2.289000000    -2.495000000    -5.027000000
H    -2.993000000    -3.142000000    -4.982000000
H    -1.845000000    -2.566000000    -4.181000000
O     0.005000000     0.546000000    -8.841000000
H     0.479000000    -0.285000000    -8.870000000
H    -0.377000000     0.573000000    -7.964000000
