215
-1472.47166
C    -5.196000000     0.937000000    -2.174000000
H    -5.029000000     1.987000000    -1.948000000
C    -4.890000000    -0.076000000    -1.298000000
C    -4.844000000    -1.422000000    -1.678000000
H    -4.567000000    -2.206000000    -0.979000000
C    -4.386000000     0.294000000     0.094000000
O    -4.831000000     1.611000000     0.467000000
H    -3.289000000     0.256000000     0.023000000
O    -4.761000000    -0.688000000     1.121000000
C    -3.942000000    -1.072000000     2.161000000
C    -3.254000000    -2.261000000     2.026000000
H    -3.437000000    -2.898000000     1.164000000
C    -2.369000000    -2.668000000     2.995000000
O    -1.662000000    -3.767000000     2.689000000
C    -2.017000000    -1.774000000     4.072000000
C    -0.921000000    -2.038000000     5.089000000
H    -1.194000000    -1.421000000     5.948000000
C     0.479000000    -1.716000000     4.575000000
C     1.094000000    -0.442000000     4.844000000
H     0.530000000     0.328000000     5.366000000
H    -0.966000000    -3.116000000     5.259000000
C    -2.645000000    -0.481000000     4.145000000
H    -2.471000000     0.244000000     4.936000000
C    -3.685000000    -0.186000000     3.235000000
C    -4.351000000     1.194000000     3.343000000
H    -4.326000000     1.540000000     4.379000000
H    -5.415000000     1.133000000     3.106000000
C    -3.568000000     2.187000000     2.474000000
C    -2.625000000     3.036000000     3.110000000
H    -2.436000000     2.891000000     4.171000000
C    -3.883000000     2.366000000     1.136000000
C    -3.195000000     3.293000000     0.399000000
H    -3.488000000     3.448000000    -0.636000000
C    -2.035000000     3.880000000     0.986000000
O    -1.254000000     4.723000000     0.222000000
C    -0.001000000     4.210000000    -0.213000000
C     0.230000000     4.311000000    -1.743000000
C     1.531000000     4.261000000    -2.274000000
H     2.407000000     4.128000000    -1.644000000
C    -0.851000000     4.483000000    -2.648000000
H    -1.852000000     4.355000000    -2.243000000
O     1.041000000     4.821000000     0.607000000
H    -0.047000000     3.133000000     0.005000000
C    -1.796000000     3.808000000     2.344000000
C    -0.596000000     4.461000000     2.997000000
H    -0.685000000     4.628000000     4.072000000
H    -0.569000000     5.496000000     2.650000000
C     0.701000000     3.773000000     2.769000000
C     1.104000000     2.792000000     3.721000000
H     0.456000000     2.535000000     4.555000000
C     1.425000000     3.957000000     1.593000000
C     2.589000000     3.264000000     1.375000000
H     3.098000000     3.280000000     0.415000000
C     3.083000000     2.439000000     2.394000000
O     4.171000000     1.583000000     2.208000000
C     3.930000000     0.230000000     1.812000000
C     4.754000000    -0.144000000     0.597000000
C     5.245000000     0.803000000    -0.211000000
H     5.093000000     1.835000000     0.095000000
C     4.892000000    -1.498000000     0.231000000
H     4.365000000    -2.274000000     0.780000000
O     4.164000000    -0.747000000     2.854000000
H     2.929000000     0.106000000     1.372000000
C     2.360000000     2.192000000     3.525000000
C     2.887000000     1.236000000     4.629000000
H     2.649000000     1.486000000     5.665000000
H     3.961000000     1.045000000     4.581000000
C     2.347000000    -0.138000000     4.347000000
C     3.007000000    -1.065000000     3.548000000
C     2.430000000    -2.289000000     3.197000000
H     2.869000000    -3.057000000     2.565000000
C     1.182000000    -2.598000000     3.804000000
O     0.586000000    -3.708000000     3.330000000
C    -0.334000000    -3.652000000     2.259000000
H    -0.164000000    -2.694000000     1.746000000
C    -0.063000000    -4.661000000     1.213000000
C    -0.946000000    -4.815000000     0.027000000
H    -1.814000000    -4.163000000    -0.021000000
C     1.177000000    -5.349000000     1.151000000
H     1.956000000    -5.270000000     1.905000000
C     1.466000000    -6.109000000     0.087000000
O     2.724000000    -6.656000000    -0.115000000
C     0.589000000    -6.263000000    -0.970000000
H     0.931000000    -6.962000000    -1.728000000
C    -0.672000000    -5.685000000    -1.011000000
O    -1.446000000    -5.820000000    -2.155000000
C    -2.768000000    -5.459000000    -2.113000000
C    -3.299000000    -4.408000000    -2.890000000
H    -2.633000000    -3.844000000    -3.537000000
C    -3.644000000    -6.156000000    -1.326000000
H    -3.269000000    -7.059000000    -0.851000000
C    -4.999000000    -5.920000000    -1.315000000
H    -5.657000000    -6.639000000    -0.833000000
C    -5.525000000    -4.840000000    -2.041000000
H    -6.593000000    -4.653000000    -1.971000000
C    -4.639000000    -4.004000000    -2.779000000
O    -5.083000000    -2.954000000    -3.551000000
C    -5.145000000    -1.672000000    -3.045000000
C    -5.473000000    -0.662000000    -3.904000000
H    -5.625000000    -0.780000000    -4.974000000
C    -5.524000000     0.658000000    -3.502000000
O    -5.612000000     1.667000000    -4.399000000
C    -4.982000000     2.814000000    -4.244000000
C    -3.690000000     2.974000000    -4.678000000
H    -3.241000000     2.144000000    -5.217000000
C    -5.654000000     3.877000000    -3.617000000
H    -6.622000000     3.805000000    -3.126000000
C    -4.945000000     5.073000000    -3.426000000
H    -5.399000000     5.827000000    -2.789000000
C    -3.616000000     5.259000000    -3.844000000
H    -3.080000000     6.191000000    -3.681000000
C    -2.996000000     4.203000000    -4.541000000
O    -1.664000000     4.183000000    -5.040000000
C    -0.631000000     4.378000000    -4.081000000
C     0.718000000     4.332000000    -4.534000000
H     0.913000000     4.314000000    -5.603000000
C     1.742000000     4.366000000    -3.638000000
O     2.995000000     4.314000000    -4.248000000
C     4.134000000     4.120000000    -3.550000000
C     4.534000000     2.837000000    -3.246000000
H     3.884000000     2.016000000    -3.537000000
C     4.774000000     5.174000000    -3.020000000
H     4.396000000     6.179000000    -3.186000000
C     5.905000000     5.045000000    -2.209000000
H     6.447000000     5.922000000    -1.864000000
C     6.438000000     3.784000000    -2.029000000
H     7.362000000     3.604000000    -1.486000000
C     5.745000000     2.661000000    -2.533000000
O     6.236000000     1.416000000    -2.392000000
C     5.848000000     0.499000000    -1.471000000
C     5.958000000    -0.790000000    -1.786000000
H     6.265000000    -1.110000000    -2.778000000
C     5.409000000    -1.782000000    -0.984000000
O     5.552000000    -3.027000000    -1.455000000
C     5.276000000    -4.187000000    -0.706000000
C     6.357000000    -4.722000000    -0.025000000
H     7.336000000    -4.249000000    -0.049000000
C     6.179000000    -5.830000000     0.831000000
H     7.052000000    -6.256000000     1.319000000
C     4.938000000    -6.440000000     0.892000000
H     4.737000000    -7.290000000     1.540000000
C     3.890000000    -5.932000000     0.081000000
C     4.061000000    -4.771000000    -0.657000000
H     3.213000000    -4.333000000    -1.177000000
C     1.275000000    -0.816000000    -1.571000000
H     2.067000000    -1.532000000    -1.775000000
C     0.593000000    -0.672000000    -0.271000000
H     0.996000000    -1.189000000     0.596000000
C    -0.377000000     0.306000000    -0.092000000
H    -0.812000000     0.625000000     0.908000000
C    -0.804000000     1.022000000    -1.192000000
H    -1.530000000     1.828000000    -1.128000000
C    -0.255000000     0.796000000    -2.476000000
H    -0.585000000     1.402000000    -3.316000000
C     0.797000000    -0.133000000    -2.701000000
C     1.413000000    -0.238000000    -4.112000000
O     1.137000000     0.606000000    -4.924000000
O     2.214000000    -1.072000000    -4.406000000
O     5.274000000    -2.503000000    -6.890000000
H     6.215000000    -2.675000000    -6.904000000
H     5.204000000    -1.571000000    -6.683000000
O     4.176000000     2.327000000    -8.749000000
H     3.627000000     3.020000000    -9.118000000
H     3.555000000     1.715000000    -8.354000000
O     3.282000000     1.959000000    -6.089000000
H     2.978000000     2.758000000    -5.658000000
H     2.604000000     1.311000000    -5.896000000
O     4.942000000    -0.249000000    -5.249000000
H     4.484000000    -0.725000000    -4.556000000
H     4.292000000     0.369000000    -5.584000000
O    -2.597000000     3.077000000    -7.881000000
H    -1.813000000     2.617000000    -7.581000000
H    -3.168000000     2.385000000    -8.215000000
O     0.900000000    -1.808000000    -6.680000000
H     1.571000000    -1.376000000    -6.150000000
H     0.171000000    -1.948000000    -6.075000000
O     2.041000000    -5.036000000    -3.618000000
H     2.685000000    -4.342000000    -3.477000000
H     1.979000000    -5.116000000    -4.570000000
O     7.371000000     0.092000000    -6.630000000
H     6.654000000     0.026000000    -5.999000000
H     8.153000000     0.214000000    -6.092000000
O     2.883000000    -4.486000000    -6.559000000
H     2.974000000    -3.718000000    -7.124000000
H     3.654000000    -5.018000000    -6.752000000
O    -0.645000000     1.312000000    -6.595000000
H    -1.138000000     0.504000000    -6.450000000
H    -0.013000000     1.339000000    -5.878000000
O     4.065000000    -3.130000000    -4.461000000
H     3.446000000    -2.405000000    -4.543000000
H     4.488000000    -3.181000000    -5.318000000
O    -1.401000000    -1.656000000    -5.123000000
H    -1.644000000    -2.536000000    -5.409000000
H    -0.976000000    -1.789000000    -4.276000000
O    -3.367000000    -0.374000000    -6.694000000
H    -2.809000000    -0.658000000    -7.418000000
H    -3.037000000    -0.855000000    -5.935000000
O     5.769000000     3.417000000    -6.591000000
H     5.468000000     2.963000000    -7.377000000
H     5.165000000     3.134000000    -5.904000000
O     2.323000000    -0.484000000    -8.803000000
H     1.882000000    -0.935000000    -8.083000000
H     2.018000000     0.421000000    -8.741000000
O    -0.095000000    -3.292000000    -3.117000000
H     0.386000000    -4.116000000    -3.201000000
H     0.258000000    -2.888000000    -2.325000000
O    -0.634000000    -2.978000000    -8.916000000
H     0.075000000    -3.374000000    -9.423000000
H    -0.188000000    -2.444000000    -8.258000000
O     1.246000000     2.142000000    -8.156000000
H     0.477000000     1.857000000    -7.662000000
H     1.113000000     3.081000000    -8.286000000
O    -2.298000000    -4.287000000    -6.288000000
H    -1.963000000    -5.067000000    -5.845000000
H    -2.061000000    -4.413000000    -7.207000000
