215
-1475.37391
C    -4.636000000     1.478000000    -1.940000000
H    -4.638000000     2.470000000    -1.496000000
C    -4.485000000     0.371000000    -1.103000000
C    -4.665000000    -0.908000000    -1.575000000
H    -4.389000000    -1.720000000    -0.907000000
C    -4.024000000     0.527000000     0.387000000
O    -4.469000000     1.739000000     0.966000000
H    -2.924000000     0.506000000     0.423000000
O    -4.595000000    -0.491000000     1.178000000
C    -3.845000000    -1.133000000     2.106000000
C    -3.333000000    -2.327000000     1.817000000
H    -3.603000000    -2.799000000     0.876000000
C    -2.362000000    -2.931000000     2.629000000
O    -1.788000000    -4.072000000     2.197000000
C    -1.999000000    -2.340000000     3.802000000
C    -0.879000000    -2.804000000     4.731000000
H    -0.935000000    -2.319000000     5.708000000
C     0.491000000    -2.344000000     4.197000000
C     1.118000000    -1.230000000     4.752000000
H     0.526000000    -0.544000000     5.352000000
H    -0.955000000    -3.890000000     4.808000000
C    -2.513000000    -1.026000000     4.126000000
H    -2.409000000    -0.653000000     5.142000000
C    -3.471000000    -0.500000000     3.265000000
C    -4.060000000     0.866000000     3.549000000
H    -4.160000000     0.982000000     4.630000000
H    -5.103000000     0.867000000     3.224000000
C    -3.208000000     2.017000000     3.042000000
C    -2.214000000     2.639000000     3.719000000
H    -1.933000000     2.330000000     4.723000000
C    -3.490000000     2.408000000     1.724000000
C    -2.871000000     3.514000000     1.138000000
H    -3.137000000     3.862000000     0.143000000
C    -1.806000000     4.106000000     1.835000000
O    -1.085000000     5.075000000     1.113000000
C     0.141000000     4.495000000     0.641000000
C     0.344000000     4.689000000    -0.897000000
C     1.567000000     4.371000000    -1.488000000
H     2.277000000     3.943000000    -0.784000000
C    -0.727000000     5.074000000    -1.679000000
H    -1.671000000     5.361000000    -1.222000000
O     1.237000000     4.906000000     1.429000000
H     0.061000000     3.399000000     0.600000000
C    -1.509000000     3.712000000     3.154000000
C    -0.349000000     4.284000000     3.896000000
H    -0.507000000     4.274000000     4.976000000
H    -0.237000000     5.331000000     3.605000000
C     0.991000000     3.559000000     3.407000000
C     1.270000000     2.352000000     4.064000000
H     0.549000000     2.028000000     4.810000000
C     1.750000000     3.933000000     2.276000000
C     2.868000000     3.150000000     1.910000000
H     3.484000000     3.365000000     1.041000000
C     3.178000000     2.029000000     2.631000000
O     4.254000000     1.230000000     2.159000000
C     4.005000000    -0.069000000     1.654000000
C     4.950000000    -0.443000000     0.541000000
C     5.303000000     0.617000000    -0.313000000
H     5.113000000     1.668000000    -0.107000000
C     5.273000000    -1.723000000     0.220000000
H     5.050000000    -2.534000000     0.908000000
O     4.097000000    -1.053000000     2.696000000
H     3.033000000     0.038000000     1.148000000
C     2.432000000     1.648000000     3.732000000
C     2.835000000     0.576000000     4.688000000
H     2.516000000     0.823000000     5.703000000
H     3.921000000     0.570000000     4.573000000
C     2.313000000    -0.803000000     4.254000000
C     2.972000000    -1.533000000     3.294000000
C     2.467000000    -2.774000000     2.994000000
H     2.858000000    -3.418000000     2.211000000
C     1.210000000    -3.121000000     3.293000000
O     0.581000000    -4.167000000     2.557000000
C    -0.494000000    -3.854000000     1.634000000
H    -0.433000000    -2.770000000     1.458000000
C    -0.364000000    -4.535000000     0.308000000
C    -1.440000000    -5.017000000    -0.466000000
H    -2.466000000    -4.889000000    -0.132000000
C     0.961000000    -4.844000000    -0.142000000
H     1.795000000    -4.461000000     0.440000000
C     1.133000000    -5.606000000    -1.299000000
O     2.329000000    -5.884000000    -2.001000000
C     0.021000000    -5.908000000    -2.117000000
H     0.063000000    -6.358000000    -3.106000000
C    -1.251000000    -5.638000000    -1.722000000
O    -2.287000000    -6.106000000    -2.463000000
C    -3.564000000    -5.490000000    -2.437000000
C    -3.728000000    -4.151000000    -2.765000000
H    -2.807000000    -3.588000000    -2.899000000
C    -4.656000000    -6.365000000    -2.418000000
H    -4.490000000    -7.398000000    -2.125000000
C    -5.927000000    -5.874000000    -2.708000000
H    -6.791000000    -6.533000000    -2.739000000
C    -6.094000000    -4.494000000    -2.861000000
H    -7.054000000    -4.056000000    -3.124000000
C    -4.985000000    -3.626000000    -2.922000000
O    -5.265000000    -2.341000000    -3.368000000
C    -4.990000000    -1.081000000    -2.911000000
C    -5.231000000    -0.027000000    -3.750000000
H    -5.621000000    -0.214000000    -4.747000000
C    -4.990000000     1.217000000    -3.307000000
O    -5.062000000     2.279000000    -4.228000000
C    -4.612000000     3.579000000    -3.972000000
C    -3.310000000     3.908000000    -4.119000000
H    -2.544000000     3.204000000    -4.434000000
C    -5.522000000     4.538000000    -3.537000000
H    -6.548000000     4.181000000    -3.579000000
C    -5.188000000     5.865000000    -3.172000000
H    -5.900000000     6.480000000    -2.628000000
C    -3.824000000     6.143000000    -3.233000000
H    -3.448000000     7.067000000    -2.803000000
C    -2.921000000     5.215000000    -3.770000000
O    -1.587000000     5.609000000    -3.844000000
C    -0.609000000     5.143000000    -3.029000000
C     0.596000000     4.817000000    -3.628000000
H     0.726000000     4.834000000    -4.707000000
C     1.649000000     4.298000000    -2.880000000
O     2.740000000     3.844000000    -3.612000000
C     4.031000000     3.803000000    -3.149000000
C     4.654000000     2.600000000    -2.754000000
H     4.075000000     1.686000000    -2.864000000
C     4.755000000     4.999000000    -3.007000000
H     4.237000000     5.903000000    -3.317000000
C     6.061000000     5.098000000    -2.586000000
H     6.573000000     6.021000000    -2.329000000
C     6.647000000     3.848000000    -2.145000000
H     7.655000000     3.961000000    -1.754000000
C     5.977000000     2.638000000    -2.284000000
O     6.681000000     1.419000000    -2.170000000
C     6.137000000     0.413000000    -1.421000000
C     6.470000000    -0.917000000    -1.694000000
H     6.973000000    -1.078000000    -2.644000000
C     6.040000000    -2.015000000    -0.920000000
O     6.272000000    -3.272000000    -1.370000000
C     5.578000000    -4.387000000    -0.981000000
C     5.978000000    -5.408000000    -0.102000000
H     6.968000000    -5.392000000     0.346000000
C     5.239000000    -6.571000000     0.038000000
H     5.614000000    -7.420000000     0.603000000
C     4.035000000    -6.747000000    -0.636000000
H     3.407000000    -7.610000000    -0.427000000
C     3.529000000    -5.714000000    -1.406000000
C     4.330000000    -4.551000000    -1.629000000
H     3.958000000    -3.867000000    -2.387000000
C     1.420000000    -0.786000000    -1.373000000
H     2.178000000    -1.503000000    -1.677000000
C     0.971000000    -0.762000000    -0.040000000
H     1.498000000    -1.316000000     0.733000000
C     0.021000000     0.188000000     0.383000000
H    -0.226000000     0.203000000     1.395000000
C    -0.593000000     1.056000000    -0.522000000
H    -1.414000000     1.651000000    -0.132000000
C    -0.166000000     1.093000000    -1.857000000
H    -0.521000000     1.891000000    -2.504000000
C     0.827000000     0.163000000    -2.295000000
C     1.355000000     0.138000000    -3.788000000
O     0.846000000     1.001000000    -4.542000000
O     2.262000000    -0.685000000    -4.106000000
O     4.812000000    -0.649000000    -4.320000000
H     4.946000000    -1.522000000    -4.690000000
H     3.892000000    -0.640000000    -4.055000000
O     3.647000000     1.993000000    -6.351000000
H     2.794000000     1.933000000    -6.782000000
H     3.441000000     2.009000000    -5.416000000
O    -0.490000000     4.076000000    -6.761000000
H     0.066000000     3.298000000    -6.725000000
H     0.120000000     4.810000000    -6.699000000
O     2.828000000    -1.150000000    -6.702000000
H     2.676000000    -0.752000000    -5.844000000
H     3.528000000    -1.785000000    -6.551000000
O    -0.027000000    -2.506000000    -6.056000000
H     0.892000000    -2.428000000    -5.799000000
H    -0.120000000    -1.905000000    -6.796000000
O    -0.189000000    -5.208000000    -5.371000000
H     0.618000000    -5.553000000    -5.752000000
H    -0.141000000    -4.264000000    -5.521000000
O    -0.595000000     1.412000000    -9.867000000
H    -0.370000000     1.647000000    -8.967000000
H    -0.888000000     0.502000000    -9.810000000
O     5.344000000     4.330000000    -6.713000000
H     4.689000000     3.635000000    -6.646000000
H     4.923000000     5.095000000    -6.320000000
O     5.482000000     1.186000000    -8.380000000
H     4.857000000     1.616000000    -7.797000000
H     4.940000000     0.654000000    -8.962000000
O     0.795000000     1.727000000    -7.018000000
H     0.878000000     1.437000000    -6.110000000
H     0.570000000     0.934000000    -7.504000000
O     2.475000000    -3.459000000    -4.183000000
H     2.586000000    -2.525000000    -4.006000000
H     1.744000000    -3.723000000    -3.624000000
O    -1.917000000     0.650000000    -5.483000000
H    -1.203000000     1.150000000    -5.089000000
H    -1.973000000    -0.146000000    -4.954000000
O    -2.688000000     2.584000000    -7.208000000
H    -1.866000000     3.070000000    -7.133000000
H    -2.605000000     1.874000000    -6.572000000
O    -1.468000000    -2.135000000    -1.555000000
H    -0.888000000    -1.492000000    -1.147000000
H    -1.562000000    -2.824000000    -0.896000000
O     3.044000000     0.270000000    -9.168000000
H     2.341000000    -0.184000000    -9.633000000
H     2.902000000     0.051000000    -8.247000000
O    -0.762000000    -0.398000000    -7.693000000
H    -1.289000000     0.000000000    -7.001000000
H    -1.376000000    -0.532000000    -8.415000000
O     4.949000000    -3.206000000    -5.330000000
H     5.652000000    -3.847000000    -5.226000000
H     4.190000000    -3.614000000    -4.913000000
O    -1.772000000    -1.422000000    -4.033000000
H    -1.068000000    -2.048000000    -4.200000000
H    -1.777000000    -1.315000000    -3.081000000
O     7.334000000     0.733000000    -4.920000000
H     6.402000000     0.597000000    -4.751000000
H     7.639000000     1.249000000    -4.173000000
