215
-1466.21175
C    -4.766000000    -0.725000000    -0.912000000
H    -4.635000000     0.351000000    -0.829000000
C    -4.551000000    -1.543000000     0.162000000
C    -4.717000000    -2.922000000     0.074000000
H    -4.425000000    -3.638000000     0.838000000
C    -3.904000000    -1.013000000     1.422000000
O    -4.503000000     0.191000000     1.883000000
H    -2.855000000    -0.864000000     1.128000000
O    -3.882000000    -1.933000000     2.463000000
C    -2.714000000    -2.112000000     3.186000000
C    -1.948000000    -3.156000000     2.868000000
H    -2.317000000    -3.839000000     2.106000000
C    -0.618000000    -3.182000000     3.389000000
O     0.200000000    -4.045000000     2.792000000
C    -0.145000000    -2.239000000     4.312000000
C     1.224000000    -2.251000000     4.918000000
H     1.153000000    -1.867000000     5.938000000
C     2.187000000    -1.473000000     4.125000000
C     2.345000000    -0.115000000     4.335000000
H     1.862000000     0.412000000     5.153000000
H     1.488000000    -3.310000000     4.892000000
C    -1.077000000    -1.273000000     4.758000000
H    -0.751000000    -0.592000000     5.540000000
C    -2.344000000    -1.099000000     4.145000000
C    -3.225000000    -0.017000000     4.458000000
H    -3.118000000     0.298000000     5.498000000
H    -4.270000000    -0.332000000     4.412000000
C    -3.018000000     1.144000000     3.437000000
C    -2.212000000     2.238000000     3.761000000
H    -1.765000000     2.208000000     4.751000000
C    -3.633000000     1.204000000     2.233000000
C    -3.523000000     2.230000000     1.310000000
H    -4.055000000     2.234000000     0.363000000
C    -2.821000000     3.356000000     1.740000000
O    -2.636000000     4.380000000     0.809000000
C    -1.453000000     4.260000000     0.067000000
C    -1.612000000     4.486000000    -1.454000000
C    -0.593000000     4.904000000    -2.288000000
H     0.432000000     5.043000000    -1.954000000
C    -2.804000000     4.182000000    -2.040000000
H    -3.717000000     3.899000000    -1.522000000
O    -0.382000000     5.100000000     0.558000000
H    -1.086000000     3.228000000     0.161000000
C    -2.072000000     3.332000000     2.962000000
C    -1.065000000     4.426000000     3.387000000
H    -0.978000000     4.505000000     4.472000000
H    -1.370000000     5.408000000     3.019000000
C     0.283000000     4.241000000     2.741000000
C     1.162000000     3.409000000     3.399000000
H     0.818000000     3.082000000     4.377000000
C     0.585000000     4.594000000     1.417000000
C     1.713000000     4.096000000     0.784000000
H     1.889000000     4.270000000    -0.274000000
C     2.646000000     3.341000000     1.520000000
O     3.834000000     2.952000000     0.903000000
C     4.006000000     1.557000000     0.503000000
C     4.726000000     1.511000000    -0.818000000
C     4.384000000     2.403000000    -1.853000000
H     3.605000000     3.153000000    -1.738000000
C     5.546000000     0.412000000    -1.061000000
H     5.815000000    -0.242000000    -0.235000000
O     4.614000000     0.800000000     1.536000000
H     3.018000000     1.097000000     0.357000000
C     2.372000000     3.041000000     2.874000000
C     3.226000000     2.153000000     3.710000000
H     3.026000000     2.475000000     4.734000000
H     4.260000000     2.463000000     3.543000000
C     3.116000000     0.639000000     3.457000000
C     3.778000000     0.065000000     2.403000000
C     3.631000000    -1.276000000     2.195000000
H     4.159000000    -1.783000000     1.391000000
C     2.872000000    -2.029000000     3.052000000
O     2.533000000    -3.345000000     2.678000000
C     1.289000000    -3.525000000     1.899000000
H     0.867000000    -2.568000000     1.558000000
C     1.431000000    -4.338000000     0.614000000
C     0.330000000    -4.910000000     0.077000000
H    -0.640000000    -4.755000000     0.543000000
C     2.691000000    -4.461000000    -0.030000000
H     3.561000000    -4.050000000     0.476000000
C     2.746000000    -5.105000000    -1.294000000
O     3.906000000    -5.135000000    -2.003000000
C     1.630000000    -5.658000000    -1.767000000
H     1.690000000    -6.167000000    -2.726000000
C     0.446000000    -5.599000000    -1.101000000
O    -0.642000000    -6.250000000    -1.669000000
C    -1.874000000    -6.465000000    -1.081000000
C    -2.863000000    -5.537000000    -1.444000000
H    -2.698000000    -4.754000000    -2.178000000
C    -2.127000000    -7.474000000    -0.176000000
H    -1.275000000    -8.116000000     0.036000000
C    -3.406000000    -7.732000000     0.266000000
H    -3.383000000    -8.511000000     1.024000000
C    -4.413000000    -6.831000000    -0.093000000
H    -5.424000000    -6.987000000     0.273000000
C    -4.148000000    -5.744000000    -0.935000000
O    -5.241000000    -4.847000000    -1.159000000
C    -5.110000000    -3.497000000    -1.108000000
C    -5.265000000    -2.679000000    -2.217000000
H    -5.709000000    -3.104000000    -3.113000000
C    -5.141000000    -1.269000000    -2.115000000
O    -5.292000000    -0.426000000    -3.213000000
C    -5.650000000     0.910000000    -3.122000000
C    -4.796000000     1.877000000    -3.617000000
H    -3.847000000     1.560000000    -4.041000000
C    -6.843000000     1.266000000    -2.516000000
H    -7.529000000     0.522000000    -2.119000000
C    -7.233000000     2.571000000    -2.496000000
H    -8.129000000     2.765000000    -1.913000000
C    -6.360000000     3.603000000    -2.945000000
H    -6.632000000     4.654000000    -2.880000000
C    -5.111000000     3.278000000    -3.498000000
O    -4.221000000     4.247000000    -3.995000000
C    -2.957000000     4.313000000    -3.410000000
C    -1.912000000     4.504000000    -4.263000000
H    -2.111000000     4.677000000    -5.317000000
C    -0.753000000     4.942000000    -3.686000000
O     0.291000000     5.172000000    -4.570000000
C     1.660000000     5.212000000    -4.301000000
C     2.342000000     4.009000000    -4.344000000
H     1.756000000     3.099000000    -4.442000000
C     2.356000000     6.403000000    -4.049000000
H     1.796000000     7.334000000    -4.059000000
C     3.735000000     6.300000000    -3.740000000
H     4.333000000     7.170000000    -3.481000000
C     4.397000000     5.111000000    -3.845000000
H     5.465000000     5.064000000    -3.647000000
C     3.695000000     3.944000000    -4.078000000
O     4.379000000     2.788000000    -4.184000000
C     4.916000000     2.122000000    -3.100000000
C     5.656000000     0.987000000    -3.381000000
H     5.877000000     0.711000000    -4.409000000
C     5.973000000     0.086000000    -2.305000000
O     6.551000000    -1.124000000    -2.601000000
C     6.279000000    -2.345000000    -1.983000000
C     7.098000000    -2.688000000    -0.882000000
H     7.825000000    -1.939000000    -0.578000000
C     6.937000000    -3.981000000    -0.269000000
H     7.579000000    -4.329000000     0.537000000
C     5.843000000    -4.761000000    -0.671000000
H     5.622000000    -5.673000000    -0.123000000
C     4.992000000    -4.326000000    -1.696000000
C     5.204000000    -3.166000000    -2.422000000
H     4.595000000    -2.905000000    -3.283000000
C     0.696000000    -2.324000000    -2.357000000
H     1.583000000    -2.812000000    -2.754000000
C     0.916000000    -1.562000000    -1.133000000
H     1.933000000    -1.471000000    -0.761000000
C    -0.096000000    -0.753000000    -0.645000000
H     0.104000000    -0.070000000     0.210000000
C    -1.394000000    -0.832000000    -1.184000000
H    -2.206000000    -0.319000000    -0.674000000
C    -1.619000000    -1.729000000    -2.298000000
H    -2.640000000    -1.774000000    -2.667000000
C    -0.586000000    -2.414000000    -2.926000000
C    -0.768000000    -3.368000000    -4.080000000
O    -1.881000000    -3.490000000    -4.574000000
O     0.186000000    -4.029000000    -4.481000000
O     0.943000000    -3.540000000    -7.055000000
H     1.756000000    -3.938000000    -7.365000000
H     0.887000000    -3.794000000    -6.134000000
O     1.357000000     0.652000000    -6.333000000
H     0.746000000     0.916000000    -5.645000000
H     1.486000000     1.444000000    -6.856000000
O    -1.105000000    -6.360000000    -5.500000000
H    -0.930000000    -5.484000000    -5.157000000
H    -0.966000000    -6.281000000    -6.443000000
O    -3.467000000    -5.677000000    -7.705000000
H    -3.206000000    -6.432000000    -8.232000000
H    -2.710000000    -5.093000000    -7.731000000
O     1.392000000    -1.243000000    -8.527000000
H     1.284000000    -2.058000000    -8.036000000
H     1.610000000    -0.590000000    -7.862000000
O     1.742000000    -6.565000000    -5.850000000
H     0.873000000    -6.668000000    -5.462000000
H     2.105000000    -5.789000000    -5.423000000
O     2.650000000    -4.382000000    -4.770000000
H     1.815000000    -4.221000000    -4.331000000
H     3.155000000    -3.582000000    -4.623000000
O    -2.043000000     2.143000000    -6.470000000
H    -1.751000000     1.387000000    -5.962000000
H    -1.271000000     2.406000000    -6.973000000
O    -4.961000000    -3.363000000    -7.812000000
H    -4.588000000    -4.241000000    -7.735000000
H    -4.354000000    -2.893000000    -8.384000000
O    -1.718000000    -3.509000000    -7.491000000
H    -0.885000000    -3.183000000    -7.831000000
H    -1.575000000    -3.592000000    -6.548000000
O    -3.732000000    -6.209000000    -4.085000000
H    -2.782000000    -6.120000000    -4.011000000
H    -3.955000000    -5.738000000    -4.888000000
O    -3.335000000    -8.937000000    -3.735000000
H    -3.449000000    -8.014000000    -3.507000000
H    -4.047000000    -9.121000000    -4.348000000
O     3.859000000    -1.526000000    -5.825000000
H     4.424000000    -1.114000000    -6.479000000
H     3.063000000    -0.995000000    -5.829000000
O    -4.279000000    -0.042000000    -7.783000000
H    -3.648000000    -0.442000000    -7.184000000
H    -5.130000000    -0.201000000    -7.375000000
O    -0.668000000    -8.965000000    -3.927000000
H    -1.602000000    -9.075000000    -3.751000000
H    -0.580000000    -8.049000000    -4.192000000
O    -0.838000000    -6.879000000    -8.376000000
H    -0.840000000    -7.744000000    -8.786000000
H    -0.104000000    -6.421000000    -8.785000000
O    -1.387000000    -0.391000000    -5.547000000
H    -0.562000000    -0.875000000    -5.517000000
H    -2.063000000    -1.067000000    -5.505000000
O     4.775000000    -6.538000000    -4.336000000
H     4.990000000    -6.598000000    -5.267000000
H     4.236000000    -5.751000000    -4.264000000
O    -3.607000000    -2.046000000    -5.797000000
H    -4.079000000    -2.646000000    -6.375000000
H    -3.095000000    -2.617000000    -5.225000000
