215
-1466.24453
C    -5.499000000    -0.512000000    -1.797000000
H    -5.687000000     0.521000000    -1.517000000
C    -4.946000000    -1.416000000    -0.875000000
C    -4.611000000    -2.682000000    -1.382000000
H    -4.040000000    -3.347000000    -0.738000000
C    -4.465000000    -0.932000000     0.497000000
O    -5.100000000     0.254000000     0.907000000
H    -3.392000000    -0.688000000     0.520000000
O    -4.647000000    -1.963000000     1.514000000
C    -3.606000000    -2.103000000     2.391000000
C    -2.637000000    -3.096000000     2.153000000
H    -2.851000000    -3.727000000     1.293000000
C    -1.534000000    -3.300000000     3.022000000
O    -0.579000000    -4.157000000     2.440000000
C    -1.327000000    -2.515000000     4.174000000
C    -0.131000000    -2.591000000     5.050000000
H    -0.265000000    -2.308000000     6.097000000
C     0.998000000    -1.722000000     4.411000000
C     1.334000000    -0.455000000     4.851000000
H     0.819000000     0.067000000     5.654000000
H     0.217000000    -3.625000000     4.997000000
C    -2.363000000    -1.615000000     4.504000000
H    -2.292000000    -0.959000000     5.368000000
C    -3.382000000    -1.344000000     3.580000000
C    -4.320000000    -0.123000000     3.808000000
H    -4.324000000     0.048000000     4.887000000
H    -5.350000000    -0.392000000     3.565000000
C    -3.893000000     1.054000000     2.887000000
C    -3.009000000     2.013000000     3.410000000
H    -2.609000000     1.888000000     4.413000000
C    -4.365000000     1.215000000     1.561000000
C    -3.928000000     2.254000000     0.757000000
H    -4.250000000     2.419000000    -0.268000000
C    -2.978000000     3.138000000     1.230000000
O    -2.515000000     4.168000000     0.368000000
C    -1.149000000     4.049000000    -0.084000000
C    -0.896000000     4.090000000    -1.574000000
C     0.352000000     4.599000000    -2.059000000
H     1.000000000     5.105000000    -1.348000000
C    -1.762000000     3.520000000    -2.481000000
H    -2.688000000     3.094000000    -2.103000000
O    -0.278000000     4.919000000     0.770000000
H    -0.933000000     2.994000000     0.139000000
C    -2.507000000     3.090000000     2.587000000
C    -1.655000000     4.165000000     3.234000000
H    -1.849000000     4.116000000     4.307000000
H    -1.787000000     5.164000000     2.813000000
C    -0.151000000     3.924000000     3.024000000
C     0.559000000     3.141000000     3.907000000
H     0.126000000     2.722000000     4.811000000
C     0.390000000     4.357000000     1.773000000
C     1.681000000     3.993000000     1.480000000
H     2.167000000     4.312000000     0.561000000
C     2.380000000     3.182000000     2.357000000
O     3.615000000     2.724000000     1.986000000
C     3.691000000     1.384000000     1.442000000
C     4.697000000     1.247000000     0.348000000
C     5.035000000     2.431000000    -0.304000000
H     4.654000000     3.407000000    -0.013000000
C     5.042000000     0.023000000    -0.178000000
H     4.768000000    -0.938000000     0.250000000
O     4.061000000     0.375000000     2.456000000
H     2.706000000     1.077000000     1.061000000
C     1.844000000     2.727000000     3.569000000
C     2.679000000     1.828000000     4.487000000
H     2.335000000     1.989000000     5.511000000
H     3.748000000     2.051000000     4.448000000
C     2.347000000     0.321000000     4.222000000
C     3.095000000    -0.324000000     3.222000000
C     2.866000000    -1.616000000     2.848000000
H     3.366000000    -1.889000000     1.922000000
C     1.792000000    -2.270000000     3.423000000
O     1.539000000    -3.498000000     2.902000000
C     0.577000000    -3.510000000     1.841000000
H     0.309000000    -2.480000000     1.561000000
C     0.999000000    -4.293000000     0.606000000
C     0.124000000    -4.496000000    -0.466000000
H    -0.923000000    -4.204000000    -0.462000000
C     2.346000000    -4.626000000     0.491000000
H     2.948000000    -4.444000000     1.378000000
C     2.820000000    -5.154000000    -0.660000000
O     4.118000000    -5.334000000    -0.784000000
C     1.976000000    -5.582000000    -1.624000000
H     2.325000000    -6.008000000    -2.561000000
C     0.630000000    -5.229000000    -1.575000000
O    -0.142000000    -5.601000000    -2.620000000
C    -1.489000000    -5.916000000    -2.427000000
C    -2.454000000    -5.069000000    -2.914000000
H    -2.089000000    -4.150000000    -3.365000000
C    -1.878000000    -7.063000000    -1.806000000
H    -1.189000000    -7.838000000    -1.479000000
C    -3.223000000    -7.288000000    -1.494000000
H    -3.590000000    -8.128000000    -0.910000000
C    -4.183000000    -6.330000000    -1.907000000
H    -5.224000000    -6.496000000    -1.642000000
C    -3.775000000    -5.219000000    -2.591000000
O    -4.662000000    -4.368000000    -3.100000000
C    -4.940000000    -3.107000000    -2.636000000
C    -5.563000000    -2.206000000    -3.543000000
H    -5.981000000    -2.592000000    -4.469000000
C    -5.814000000    -0.913000000    -3.098000000
O    -6.160000000     0.020000000    -4.046000000
C    -5.497000000     1.286000000    -4.155000000
C    -4.158000000     1.406000000    -4.428000000
H    -3.541000000     0.511000000    -4.417000000
C    -6.255000000     2.459000000    -3.905000000
H    -7.320000000     2.379000000    -3.707000000
C    -5.692000000     3.695000000    -3.973000000
H    -6.226000000     4.572000000    -3.617000000
C    -4.379000000     3.834000000    -4.302000000
H    -3.894000000     4.805000000    -4.367000000
C    -3.623000000     2.686000000    -4.483000000
O    -2.241000000     2.825000000    -4.750000000
C    -1.461000000     3.390000000    -3.828000000
C    -0.216000000     3.845000000    -4.222000000
H     0.016000000     3.724000000    -5.277000000
C     0.659000000     4.420000000    -3.354000000
O     1.829000000     4.979000000    -3.928000000
C     2.973000000     5.235000000    -3.197000000
C     3.959000000     4.266000000    -3.089000000
H     3.830000000     3.305000000    -3.580000000
C     3.117000000     6.403000000    -2.422000000
H     2.323000000     7.144000000    -2.462000000
C     4.290000000     6.654000000    -1.674000000
H     4.292000000     7.581000000    -1.106000000
C     5.270000000     5.663000000    -1.524000000
H     6.045000000     5.766000000    -0.769000000
C     5.055000000     4.472000000    -2.255000000
O     6.004000000     3.516000000    -2.190000000
C     5.733000000     2.402000000    -1.452000000
C     6.153000000     1.197000000    -1.979000000
H     6.770000000     1.237000000    -2.872000000
C     5.908000000     0.024000000    -1.355000000
O     6.275000000    -1.176000000    -1.843000000
C     6.134000000    -2.343000000    -1.135000000
C     7.164000000    -2.641000000    -0.263000000
H     8.068000000    -2.037000000    -0.260000000
C     7.088000000    -3.817000000     0.544000000
H     7.827000000    -4.047000000     1.308000000
C     6.065000000    -4.695000000     0.257000000
H     6.045000000    -5.650000000     0.775000000
C     5.057000000    -4.411000000    -0.601000000
C     5.072000000    -3.193000000    -1.300000000
H     4.300000000    -3.061000000    -2.054000000
C     1.142000000    -1.891000000    -1.718000000
H     1.850000000    -2.715000000    -1.753000000
C     0.984000000    -1.045000000    -0.591000000
H     1.630000000    -1.145000000     0.278000000
C    -0.028000000    -0.129000000    -0.587000000
H    -0.174000000     0.440000000     0.287000000
C    -0.862000000     0.132000000    -1.671000000
H    -1.562000000     0.963000000    -1.694000000
C    -0.718000000    -0.764000000    -2.796000000
H    -1.329000000    -0.686000000    -3.692000000
C     0.318000000    -1.740000000    -2.826000000
C     0.714000000    -2.483000000    -4.123000000
O    -0.135000000    -2.592000000    -4.954000000
O     1.788000000    -3.042000000    -4.190000000
O    -1.095000000    -2.757000000   -10.199000000
H    -1.521000000    -2.912000000    -9.356000000
H    -1.788000000    -2.895000000   -10.846000000
O     5.301000000    -6.690000000    -3.261000000
H     5.212000000    -6.503000000    -2.327000000
H     4.890000000    -5.942000000    -3.695000000
O     2.968000000     0.572000000    -8.643000000
H     2.878000000    -0.271000000    -9.087000000
H     2.369000000     0.516000000    -7.898000000
O     0.932000000    -0.679000000    -6.808000000
H    -0.024000000    -0.671000000    -6.760000000
H     1.176000000    -1.572000000    -6.565000000
O     3.855000000    -1.326000000    -4.076000000
H     3.116000000    -1.934000000    -4.053000000
H     4.150000000    -1.273000000    -3.167000000
O    -0.180000000    -4.793000000    -6.555000000
H     0.275000000    -5.550000000    -6.187000000
H    -0.032000000    -4.093000000    -5.919000000
O     5.689000000    -2.400000000    -5.984000000
H     6.302000000    -2.673000000    -5.301000000
H     5.015000000    -1.906000000    -5.517000000
O     3.948000000    -4.510000000    -4.402000000
H     4.489000000    -4.009000000    -5.012000000
H     3.129000000    -4.018000000    -4.347000000
O     3.299000000    -2.441000000    -9.314000000
H     3.888000000    -3.089000000    -8.928000000
H     2.424000000    -2.813000000    -9.198000000
O     1.131000000    -3.987000000    -9.194000000
H     0.481000000    -3.610000000    -9.786000000
H     0.630000000    -4.246000000    -8.421000000
O     2.984000000     0.989000000    -5.776000000
H     3.367000000     0.619000000    -4.980000000
H     2.290000000     0.375000000    -6.016000000
O     0.121000000    -7.885000000    -5.769000000
H    -0.255000000    -8.390000000    -5.048000000
H     1.037000000    -7.761000000    -5.523000000
O    -2.746000000    -5.809000000    -6.088000000
H    -2.714000000    -5.870000000    -5.133000000
H    -1.934000000    -5.363000000    -6.327000000
O    -3.024000000    -3.572000000    -8.586000000
H    -3.048000000    -3.426000000    -7.640000000
H    -2.751000000    -4.485000000    -8.680000000
O    -2.000000000     0.621000000    -6.765000000
H    -1.669000000     0.977000000    -7.589000000
H    -1.660000000     1.213000000    -6.094000000
O     5.362000000    -4.251000000    -7.983000000
H     5.445000000    -3.575000000    -7.311000000
H     6.173000000    -4.188000000    -8.488000000
O    -4.749000000     0.304000000    -7.236000000
H    -5.000000000     1.213000000    -7.403000000
H    -3.977000000     0.369000000    -6.674000000
O     2.735000000    -7.030000000    -5.535000000
H     3.121000000    -6.426000000    -4.901000000
H     3.152000000    -6.803000000    -6.366000000
O    -2.774000000    -2.717000000    -6.090000000
H    -2.984000000    -1.797000000    -5.933000000
H    -2.070000000    -2.911000000    -5.471000000
