215
-1476.31243
C    -5.568000000     0.688000000    -1.600000000
H    -5.613000000     1.704000000    -1.215000000
C    -5.029000000    -0.312000000    -0.851000000
C    -4.870000000    -1.560000000    -1.449000000
H    -4.307000000    -2.308000000    -0.898000000
C    -4.491000000    -0.168000000     0.574000000
O    -5.043000000     1.059000000     1.141000000
H    -3.396000000    -0.092000000     0.510000000
O    -4.840000000    -1.267000000     1.465000000
C    -3.804000000    -1.534000000     2.375000000
C    -3.049000000    -2.685000000     2.188000000
H    -3.338000000    -3.320000000     1.355000000
C    -1.897000000    -3.023000000     2.967000000
O    -1.105000000    -4.099000000     2.638000000
C    -1.615000000    -2.230000000     4.112000000
C    -0.490000000    -2.531000000     5.085000000
H    -0.813000000    -2.118000000     6.043000000
C     0.857000000    -1.941000000     4.654000000
C     1.346000000    -0.716000000     5.027000000
H     0.740000000    -0.076000000     5.663000000
H    -0.407000000    -3.610000000     5.224000000
C    -2.362000000    -1.055000000     4.269000000
H    -2.110000000    -0.385000000     5.087000000
C    -3.474000000    -0.719000000     3.435000000
C    -4.315000000     0.555000000     3.811000000
H    -4.374000000     0.849000000     4.861000000
H    -5.363000000     0.461000000     3.517000000
C    -3.769000000     1.759000000     3.026000000
C    -2.617000000     2.425000000     3.512000000
H    -2.218000000     2.197000000     4.497000000
C    -4.207000000     1.957000000     1.735000000
C    -3.551000000     2.884000000     0.920000000
H    -3.840000000     2.957000000    -0.126000000
C    -2.449000000     3.595000000     1.418000000
O    -1.799000000     4.433000000     0.491000000
C    -0.545000000     3.958000000    -0.019000000
C    -0.502000000     4.065000000    -1.572000000
C     0.687000000     3.750000000    -2.197000000
H     1.533000000     3.425000000    -1.598000000
C    -1.648000000     4.441000000    -2.316000000
H    -2.570000000     4.708000000    -1.805000000
O     0.574000000     4.628000000     0.664000000
H    -0.477000000     2.926000000     0.356000000
C    -2.053000000     3.434000000     2.748000000
C    -0.921000000     4.251000000     3.274000000
H    -0.893000000     4.539000000     4.327000000
H    -0.934000000     5.223000000     2.777000000
C     0.397000000     3.586000000     2.934000000
C     1.050000000     2.832000000     3.936000000
H     0.672000000     2.682000000     4.944000000
C     1.098000000     3.849000000     1.729000000
C     2.352000000     3.273000000     1.499000000
H     2.899000000     3.589000000     0.614000000
C     2.902000000     2.471000000     2.439000000
O     4.070000000     1.915000000     2.146000000
C     4.023000000     0.485000000     1.750000000
C     5.046000000     0.355000000     0.617000000
C     5.156000000     1.333000000    -0.371000000
H     4.693000000     2.298000000    -0.178000000
C     5.597000000    -0.917000000     0.368000000
H     5.338000000    -1.785000000     0.969000000
O     4.287000000    -0.551000000     2.831000000
H     3.012000000     0.273000000     1.373000000
C     2.288000000     2.292000000     3.713000000
C     2.817000000     1.376000000     4.773000000
H     2.339000000     1.715000000     5.694000000
H     3.871000000     1.471000000     5.042000000
C     2.464000000    -0.092000000     4.472000000
C     3.165000000    -0.868000000     3.544000000
C     2.716000000    -2.146000000     3.211000000
H     3.249000000    -2.684000000     2.431000000
C     1.586000000    -2.727000000     3.750000000
O     1.098000000    -3.892000000     3.208000000
C     0.240000000    -3.733000000     2.138000000
H     0.254000000    -2.670000000     1.853000000
C     0.701000000    -4.401000000     0.913000000
C    -0.114000000    -4.296000000    -0.193000000
H    -1.108000000    -3.867000000    -0.093000000
C     1.953000000    -4.981000000     0.808000000
H     2.615000000    -5.075000000     1.664000000
C     2.386000000    -5.356000000    -0.416000000
O     3.578000000    -5.906000000    -0.528000000
C     1.541000000    -5.299000000    -1.568000000
H     1.987000000    -5.649000000    -2.496000000
C     0.259000000    -4.812000000    -1.454000000
O    -0.530000000    -4.662000000    -2.595000000
C    -1.917000000    -4.760000000    -2.586000000
C    -2.719000000    -3.754000000    -3.078000000
H    -2.293000000    -2.855000000    -3.515000000
C    -2.483000000    -5.901000000    -2.002000000
H    -1.803000000    -6.677000000    -1.660000000
C    -3.864000000    -6.027000000    -1.862000000
H    -4.327000000    -6.846000000    -1.318000000
C    -4.718000000    -5.067000000    -2.523000000
H    -5.782000000    -5.289000000    -2.504000000
C    -4.125000000    -3.896000000    -3.007000000
O    -4.995000000    -2.947000000    -3.447000000
C    -5.234000000    -1.774000000    -2.766000000
C    -5.928000000    -0.769000000    -3.440000000
H    -6.244000000    -0.865000000    -4.476000000
C    -6.023000000     0.530000000    -2.941000000
O    -6.678000000     1.476000000    -3.682000000
C    -6.153000000     2.697000000    -3.790000000
C    -4.774000000     2.807000000    -4.066000000
H    -4.252000000     1.880000000    -4.289000000
C    -6.867000000     3.893000000    -3.682000000
H    -7.945000000     3.830000000    -3.561000000
C    -6.263000000     5.153000000    -3.839000000
H    -6.826000000     6.083000000    -3.833000000
C    -4.876000000     5.230000000    -4.043000000
H    -4.509000000     6.245000000    -4.175000000
C    -4.151000000     4.078000000    -4.129000000
O    -2.798000000     4.182000000    -4.435000000
C    -1.667000000     4.101000000    -3.678000000
C    -0.475000000     3.759000000    -4.337000000
H    -0.487000000     3.652000000    -5.418000000
C     0.723000000     3.666000000    -3.590000000
O     1.912000000     3.269000000    -4.195000000
C     3.145000000     3.659000000    -3.760000000
C     3.996000000     2.610000000    -3.290000000
H     3.688000000     1.568000000    -3.261000000
C     3.568000000     5.005000000    -3.737000000
H     2.908000000     5.664000000    -4.295000000
C     4.711000000     5.327000000    -3.049000000
H     5.036000000     6.356000000    -2.920000000
C     5.546000000     4.313000000    -2.620000000
H     6.512000000     4.612000000    -2.221000000
C     5.216000000     2.970000000    -2.740000000
O     6.260000000     2.165000000    -2.360000000
C     6.042000000     1.180000000    -1.432000000
C     6.654000000    -0.059000000    -1.597000000
H     7.248000000    -0.245000000    -2.489000000
C     6.393000000    -1.117000000    -0.765000000
O     6.853000000    -2.337000000    -1.109000000
C     6.485000000    -3.597000000    -0.653000000
C     7.489000000    -4.527000000    -0.382000000
H     8.558000000    -4.344000000    -0.453000000
C     7.231000000    -5.895000000    -0.204000000
H     8.012000000    -6.629000000    -0.023000000
C     5.944000000    -6.308000000    -0.294000000
H     5.703000000    -7.366000000    -0.234000000
C     4.896000000    -5.387000000    -0.488000000
C     5.155000000    -3.973000000    -0.573000000
H     4.318000000    -3.304000000    -0.755000000
C     1.427000000    -0.752000000    -0.892000000
H     2.394000000    -1.245000000    -0.950000000
C     0.888000000    -0.434000000     0.315000000
H     1.460000000    -0.769000000     1.177000000
C    -0.358000000     0.109000000     0.435000000
H    -0.956000000     0.141000000     1.325000000
C    -1.020000000     0.501000000    -0.724000000
H    -2.026000000     0.913000000    -0.707000000
C    -0.404000000     0.394000000    -2.002000000
H    -0.730000000     0.832000000    -2.942000000
C     0.806000000    -0.321000000    -2.099000000
C     1.472000000    -0.581000000    -3.456000000
O     0.796000000    -0.515000000    -4.455000000
O     2.631000000    -1.085000000    -3.625000000
O     5.079000000    -6.034000000    -3.690000000
H     4.478000000    -6.731000000    -3.429000000
H     4.529000000    -5.253000000    -3.750000000
O     1.007000000     1.755000000    -7.080000000
H     0.912000000     2.536000000    -6.536000000
H     0.203000000     1.258000000    -6.928000000
O    -1.215000000     0.455000000    -6.008000000
H    -1.562000000    -0.380000000    -6.323000000
H    -0.514000000     0.210000000    -5.404000000
O     5.286000000    -1.695000000    -3.829000000
H     4.353000000    -1.583000000    -3.645000000
H     5.608000000    -0.808000000    -3.987000000
O     0.565000000    -2.967000000    -5.371000000
H     1.047000000    -3.461000000    -4.707000000
H     0.569000000    -2.066000000    -5.048000000
O     5.816000000     0.728000000    -7.008000000
H     4.970000000     0.408000000    -6.694000000
H     6.353000000    -0.061000000    -7.094000000
O     6.054000000    -3.444000000    -5.816000000
H     6.655000000    -4.125000000    -5.512000000
H     5.623000000    -3.133000000    -5.020000000
O     1.886000000    -0.053000000   -10.229000000
H     1.512000000     0.752000000    -9.872000000
H     1.950000000    -0.642000000    -9.478000000
O     2.954000000    -3.597000000    -4.272000000
H     3.119000000    -2.682000000    -4.041000000
H     2.857000000    -3.590000000    -5.224000000
O     1.518000000    -1.614000000    -8.058000000
H     0.880000000    -2.327000000    -8.029000000
H     1.627000000    -1.352000000    -7.143000000
O    -1.799000000    -2.236000000    -6.433000000
H    -1.695000000    -2.311000000    -7.381000000
H    -0.943000000    -2.475000000    -6.078000000
O     3.228000000     0.206000000    -6.176000000
H     2.568000000     0.832000000    -6.475000000
H     2.796000000    -0.280000000    -5.473000000
O    -3.447000000     0.895000000    -8.319000000
H    -3.139000000     1.510000000    -8.985000000
H    -3.067000000     1.217000000    -7.502000000
O     4.469000000    -3.896000000    -8.132000000
H     4.757000000    -3.692000000    -7.242000000
H     4.305000000    -4.839000000    -8.120000000
O     0.831000000     2.425000000    -9.626000000
H     0.833000000     2.310000000    -8.676000000
H     0.954000000     3.366000000    -9.754000000
O    -0.440000000    -3.635000000    -8.449000000
H    -0.808000000    -3.712000000    -9.329000000
H    -0.880000000    -4.320000000    -7.945000000
O     2.797000000    -7.122000000    -4.977000000
H     3.580000000    -7.111000000    -5.528000000
H     2.242000000    -6.430000000    -5.336000000
O     6.215000000     3.379000000    -6.039000000
H     5.901000000     2.598000000    -6.494000000
H     5.939000000     3.255000000    -5.131000000
O     1.841000000    -4.908000000    -7.037000000
H     2.053000000    -4.820000000    -7.966000000
H     1.326000000    -4.127000000    -6.834000000
