215
-1451.67700
C    -5.504000000    -1.228000000    -1.351000000
H    -6.006000000    -0.340000000    -0.976000000
C    -4.589000000    -1.806000000    -0.502000000
C    -3.913000000    -2.904000000    -1.023000000
H    -3.145000000    -3.350000000    -0.397000000
C    -4.159000000    -1.234000000     0.864000000
O    -4.958000000    -0.107000000     1.161000000
H    -3.098000000    -0.944000000     0.879000000
O    -4.200000000    -2.260000000     1.895000000
C    -3.140000000    -2.244000000     2.802000000
C    -2.116000000    -3.119000000     2.574000000
H    -2.272000000    -3.769000000     1.717000000
C    -0.895000000    -3.019000000     3.340000000
O     0.129000000    -3.871000000     3.018000000
C    -0.839000000    -2.061000000     4.434000000
C     0.462000000    -1.872000000     5.144000000
H     0.217000000    -1.398000000     6.097000000
C     1.411000000    -0.987000000     4.388000000
C     1.502000000     0.415000000     4.644000000
H     0.944000000     0.885000000     5.450000000
H     0.933000000    -2.817000000     5.425000000
C    -1.920000000    -1.151000000     4.550000000
H    -1.726000000    -0.275000000     5.163000000
C    -3.038000000    -1.222000000     3.735000000
C    -4.106000000    -0.110000000     3.942000000
H    -3.963000000     0.392000000     4.901000000
H    -5.162000000    -0.385000000     3.897000000
C    -3.822000000     1.036000000     2.930000000
C    -3.143000000     2.100000000     3.390000000
H    -2.769000000     2.192000000     4.407000000
C    -4.356000000     0.989000000     1.630000000
C    -4.117000000     2.015000000     0.777000000
H    -4.454000000     1.902000000    -0.251000000
C    -3.384000000     3.075000000     1.203000000
O    -2.914000000     3.937000000     0.226000000
C    -1.596000000     3.673000000    -0.267000000
C    -1.517000000     3.536000000    -1.887000000
C    -0.251000000     3.688000000    -2.460000000
H     0.622000000     3.892000000    -1.846000000
C    -2.575000000     3.072000000    -2.640000000
H    -3.556000000     3.016000000    -2.175000000
O    -0.789000000     4.816000000     0.220000000
H    -1.200000000     2.761000000     0.204000000
C    -2.820000000     3.070000000     2.497000000
C    -1.957000000     4.291000000     2.893000000
H    -1.988000000     4.542000000     3.956000000
H    -2.198000000     5.278000000     2.494000000
C    -0.436000000     4.179000000     2.557000000
C     0.426000000     3.725000000     3.550000000
H     0.043000000     3.414000000     4.518000000
C     0.049000000     4.446000000     1.246000000
C     1.451000000     4.445000000     1.089000000
H     1.801000000     4.680000000     0.087000000
C     2.265000000     3.860000000     2.016000000
O     3.508000000     3.431000000     1.578000000
C     3.676000000     1.997000000     1.208000000
C     4.560000000     1.850000000    -0.073000000
C     4.834000000     2.934000000    -0.921000000
H     4.395000000     3.899000000    -0.681000000
C     5.182000000     0.680000000    -0.440000000
H     5.017000000    -0.176000000     0.210000000
O     4.249000000     1.210000000     2.314000000
H     2.663000000     1.657000000     0.947000000
C     1.738000000     3.477000000     3.307000000
C     2.557000000     2.628000000     4.248000000
H     2.249000000     2.829000000     5.276000000
H     3.585000000     2.995000000     4.262000000
C     2.518000000     1.138000000     4.042000000
C     3.377000000     0.559000000     3.107000000
C     3.230000000    -0.821000000     2.844000000
H     3.813000000    -1.269000000     2.044000000
C     2.292000000    -1.551000000     3.480000000
O     2.276000000    -2.891000000     3.185000000
C     1.248000000    -3.313000000     2.247000000
H     0.941000000    -2.447000000     1.642000000
C     1.718000000    -4.332000000     1.209000000
C     0.933000000    -5.219000000     0.489000000
H    -0.108000000    -5.339000000     0.780000000
C     3.037000000    -4.244000000     0.747000000
H     3.676000000    -3.472000000     1.169000000
C     3.515000000    -4.884000000    -0.407000000
O     4.785000000    -4.701000000    -0.975000000
C     2.702000000    -5.770000000    -1.094000000
H     3.165000000    -6.311000000    -1.916000000
C     1.417000000    -5.932000000    -0.612000000
O     0.618000000    -6.885000000    -1.203000000
C    -0.799000000    -6.716000000    -1.396000000
C    -1.364000000    -5.563000000    -1.994000000
H    -0.716000000    -4.895000000    -2.557000000
C    -1.621000000    -7.678000000    -0.863000000
H    -1.262000000    -8.623000000    -0.462000000
C    -3.002000000    -7.517000000    -0.905000000
H    -3.621000000    -8.305000000    -0.484000000
C    -3.592000000    -6.409000000    -1.471000000
H    -4.658000000    -6.280000000    -1.637000000
C    -2.752000000    -5.477000000    -2.064000000
O    -3.344000000    -4.438000000    -2.820000000
C    -4.142000000    -3.396000000    -2.321000000
C    -5.106000000    -2.820000000    -3.139000000
H    -5.408000000    -3.255000000    -4.088000000
C    -5.849000000    -1.744000000    -2.599000000
O    -6.623000000    -1.067000000    -3.411000000
C    -6.371000000     0.283000000    -3.650000000
C    -5.075000000     0.676000000    -4.138000000
H    -4.360000000    -0.141000000    -4.185000000
C    -7.349000000     1.276000000    -3.673000000
H    -8.360000000     0.901000000    -3.533000000
C    -7.047000000     2.595000000    -4.031000000
H    -7.927000000     3.233000000    -4.015000000
C    -5.689000000     3.001000000    -4.387000000
H    -5.434000000     4.028000000    -4.639000000
C    -4.696000000     2.047000000    -4.384000000
O    -3.449000000     2.456000000    -4.779000000
C    -2.384000000     2.797000000    -4.005000000
C    -1.230000000     3.238000000    -4.616000000
H    -1.145000000     3.131000000    -5.694000000
C    -0.158000000     3.529000000    -3.786000000
O     1.114000000     3.467000000    -4.362000000
C     2.148000000     4.331000000    -3.981000000
C     3.354000000     3.675000000    -3.809000000
H     3.429000000     2.597000000    -3.928000000
C     2.052000000     5.744000000    -3.873000000
H     1.130000000     6.302000000    -4.011000000
C     3.137000000     6.483000000    -3.490000000
H     2.922000000     7.526000000    -3.273000000
C     4.390000000     5.813000000    -3.249000000
H     5.169000000     6.343000000    -2.708000000
C     4.489000000     4.451000000    -3.382000000
O     5.698000000     3.854000000    -2.903000000
C     5.553000000     2.829000000    -2.077000000
C     6.202000000     1.637000000    -2.356000000
H     6.793000000     1.563000000    -3.265000000
C     6.021000000     0.520000000    -1.565000000
O     6.842000000    -0.546000000    -1.725000000
C     6.814000000    -1.717000000    -0.918000000
C     7.444000000    -1.775000000     0.307000000
H     8.076000000    -0.978000000     0.691000000
C     7.321000000    -2.893000000     1.124000000
H     7.766000000    -2.863000000     2.115000000
C     6.446000000    -3.911000000     0.711000000
H     6.285000000    -4.788000000     1.332000000
C     5.665000000    -3.768000000    -0.409000000
C     5.908000000    -2.712000000    -1.249000000
H     5.317000000    -2.557000000    -2.148000000
C     0.861000000    -1.608000000    -1.981000000
H     1.766000000    -2.211000000    -1.955000000
C     0.575000000    -0.733000000    -0.967000000
H     1.301000000    -0.627000000    -0.165000000
C    -0.594000000    -0.060000000    -0.870000000
H    -0.821000000     0.553000000    -0.010000000
C    -1.504000000    -0.186000000    -1.890000000
H    -2.399000000     0.429000000    -1.941000000
C    -1.196000000    -0.960000000    -3.052000000
H    -1.792000000    -1.000000000    -3.960000000
C    -0.063000000    -1.765000000    -3.038000000
C     0.338000000    -2.511000000    -4.334000000
O    -0.429000000    -2.450000000    -5.337000000
O     1.349000000    -3.164000000    -4.384000000
O     3.515000000     0.850000000    -6.220000000
H     3.511000000     0.012000000    -6.681000000
H     3.391000000     0.619000000    -5.300000000
O     0.688000000     1.409000000    -6.969000000
H     1.068000000     2.287000000    -6.998000000
H     1.443000000     0.822000000    -6.950000000
O     2.648000000    -1.673000000    -6.769000000
H     2.539000000    -1.926000000    -5.853000000
H     1.943000000    -2.129000000    -7.230000000
O     3.564000000    -0.223000000    -3.702000000
H     3.983000000    -1.083000000    -3.739000000
H     2.924000000    -0.299000000    -2.994000000
O     1.283000000    -5.776000000    -4.013000000
H     1.098000000    -4.837000000    -4.036000000
H     2.147000000    -5.860000000    -4.415000000
O    -3.918000000     1.091000000    -8.240000000
H    -4.382000000     0.788000000    -9.021000000
H    -3.357000000     0.356000000    -7.995000000
O     1.204000000    -8.491000000    -3.435000000
H     1.010000000    -7.576000000    -3.235000000
H     1.238000000    -8.525000000    -4.391000000
O     3.956000000    -3.010000000    -4.105000000
H     4.340000000    -3.807000000    -4.469000000
H     3.018000000    -3.196000000    -4.056000000
O     3.294000000    -6.246000000    -5.599000000
H     4.069000000    -5.869000000    -6.015000000
H     2.623000000    -6.228000000    -6.282000000
O     0.228000000    -3.146000000    -7.830000000
H     0.027000000    -3.076000000    -6.897000000
H    -0.404000000    -2.567000000    -8.256000000
O     1.446000000    -5.934000000    -7.521000000
H     1.005000000    -6.406000000    -8.228000000
H     1.224000000    -5.015000000    -7.672000000
O    -2.659000000    -3.906000000    -5.901000000
H    -2.516000000    -4.834000000    -5.712000000
H    -1.795000000    -3.506000000    -5.804000000
O    -4.836000000    -5.688000000    -5.240000000
H    -4.393000000    -4.859000000    -5.419000000
H    -5.376000000    -5.510000000    -4.470000000
O    -0.947000000    -1.834000000   -10.251000000
H    -1.195000000    -1.054000000    -9.755000000
H    -0.028000000    -1.691000000   -10.478000000
O    -0.905000000    -6.762000000    -5.513000000
H    -0.285000000    -6.435000000    -4.861000000
H    -0.427000000    -6.715000000    -6.342000000
O    -1.564000000    -0.374000000    -6.804000000
H    -1.087000000    -0.897000000    -6.161000000
H    -1.001000000     0.383000000    -6.962000000
O     1.263000000    -4.785000000   -10.840000000
H     1.442000000    -4.231000000   -10.080000000
H     1.457000000    -4.228000000   -11.594000000
O    -3.843000000    -1.836000000    -7.115000000
H    -3.715000000    -2.637000000    -6.607000000
H    -3.121000000    -1.266000000    -6.851000000
O    -3.326000000    -7.962000000    -4.796000000
H    -3.665000000    -7.136000000    -4.452000000
H    -2.506000000    -7.724000000    -5.228000000
