215
-1430.63174
C    -4.247000000    -2.507000000    -1.110000000
H    -4.373000000    -1.452000000    -1.342000000
C    -3.905000000    -2.872000000     0.173000000
C    -3.496000000    -4.242000000     0.352000000
H    -3.315000000    -4.582000000     1.368000000
C    -3.804000000    -1.811000000     1.272000000
O    -4.725000000    -0.674000000     1.177000000
H    -2.775000000    -1.427000000     1.225000000
O    -3.907000000    -2.456000000     2.551000000
C    -2.813000000    -2.109000000     3.313000000
C    -1.656000000    -2.889000000     3.250000000
H    -1.685000000    -3.910000000     2.879000000
C    -0.544000000    -2.380000000     3.861000000
O     0.609000000    -3.097000000     3.597000000
C    -0.506000000    -1.214000000     4.625000000
C     0.710000000    -0.731000000     5.351000000
H     0.396000000    -0.142000000     6.216000000
C     1.594000000     0.130000000     4.421000000
C     1.574000000     1.548000000     4.427000000
H     0.922000000     1.939000000     5.204000000
H     1.306000000    -1.575000000     5.705000000
C    -1.644000000    -0.420000000     4.605000000
H    -1.705000000     0.489000000     5.199000000
C    -2.775000000    -0.838000000     3.922000000
C    -4.006000000     0.055000000     3.875000000
H    -4.111000000     0.590000000     4.821000000
H    -4.906000000    -0.547000000     3.734000000
C    -3.992000000     1.046000000     2.736000000
C    -3.302000000     2.227000000     2.832000000
H    -2.890000000     2.557000000     3.782000000
C    -4.359000000     0.608000000     1.476000000
C    -4.204000000     1.398000000     0.404000000
H    -4.415000000     0.938000000    -0.558000000
C    -3.630000000     2.615000000     0.502000000
O    -3.434000000     3.276000000    -0.680000000
C    -2.179000000     3.729000000    -1.081000000
C    -2.136000000     3.453000000    -2.570000000
C    -1.427000000     4.378000000    -3.310000000
H    -1.061000000     5.309000000    -2.883000000
C    -2.710000000     2.291000000    -3.191000000
H    -3.067000000     1.467000000    -2.578000000
O    -1.715000000     4.993000000    -0.599000000
H    -1.320000000     3.122000000    -0.760000000
C    -3.207000000     3.108000000     1.748000000
C    -2.686000000     4.569000000     1.875000000
H    -2.751000000     4.784000000     2.943000000
H    -3.283000000     5.281000000     1.301000000
C    -1.200000000     4.654000000     1.692000000
C    -0.321000000     4.298000000     2.676000000
H    -0.629000000     4.043000000     3.687000000
C    -0.761000000     4.928000000     0.407000000
C     0.580000000     4.791000000     0.085000000
H     0.975000000     4.963000000    -0.913000000
C     1.476000000     4.450000000     1.101000000
O     2.683000000     4.198000000     0.643000000
C     3.021000000     2.783000000     0.414000000
C     3.917000000     2.538000000    -0.800000000
C     3.583000000     3.128000000    -2.047000000
H     2.773000000     3.835000000    -2.207000000
C     4.820000000     1.472000000    -0.849000000
H     4.977000000     0.833000000     0.016000000
O     3.759000000     2.403000000     1.585000000
H     2.138000000     2.140000000     0.286000000
C     1.017000000     4.229000000     2.380000000
C     1.999000000     3.836000000     3.439000000
H     1.652000000     4.102000000     4.440000000
H     3.005000000     4.254000000     3.371000000
C     2.206000000     2.328000000     3.527000000
C     3.025000000     1.714000000     2.547000000
C     3.166000000     0.293000000     2.579000000
H     3.752000000    -0.157000000     1.782000000
C     2.452000000    -0.450000000     3.450000000
O     2.615000000    -1.803000000     3.352000000
C     1.608000000    -2.580000000     2.665000000
H     1.050000000    -1.956000000     1.952000000
C     2.257000000    -3.656000000     1.881000000
C     1.643000000    -4.856000000     1.755000000
H     0.747000000    -5.106000000     2.318000000
C     3.391000000    -3.397000000     1.075000000
H     3.933000000    -2.457000000     1.144000000
C     3.841000000    -4.389000000     0.144000000
O     4.791000000    -4.063000000    -0.763000000
C     3.154000000    -5.539000000    -0.019000000
H     3.512000000    -6.189000000    -0.813000000
C     2.063000000    -5.793000000     0.814000000
O     1.341000000    -6.951000000     0.566000000
C     0.032000000    -7.139000000     0.811000000
C    -1.041000000    -6.646000000     0.046000000
H    -0.816000000    -6.008000000    -0.805000000
C    -0.293000000    -7.845000000     2.004000000
H     0.542000000    -8.198000000     2.604000000
C    -1.588000000    -8.100000000     2.339000000
H    -1.819000000    -8.713000000     3.206000000
C    -2.625000000    -7.648000000     1.550000000
H    -3.648000000    -7.713000000     1.912000000
C    -2.347000000    -6.915000000     0.367000000
O    -3.309000000    -6.500000000    -0.453000000
C    -3.680000000    -5.164000000    -0.681000000
C    -4.049000000    -4.761000000    -1.954000000
H    -4.067000000    -5.521000000    -2.730000000
C    -4.301000000    -3.427000000    -2.186000000
O    -4.728000000    -3.137000000    -3.465000000
C    -4.906000000    -1.846000000    -3.839000000
C    -3.854000000    -1.120000000    -4.418000000
H    -2.942000000    -1.684000000    -4.596000000
C    -6.113000000    -1.188000000    -3.597000000
H    -6.948000000    -1.688000000    -3.113000000
C    -6.335000000     0.202000000    -3.890000000
H    -7.291000000     0.705000000    -3.770000000
C    -5.212000000     0.921000000    -4.394000000
H    -5.260000000     1.993000000    -4.565000000
C    -4.037000000     0.251000000    -4.691000000
O    -2.951000000     0.932000000    -5.145000000
C    -2.457000000     2.060000000    -4.541000000
C    -1.732000000     2.984000000    -5.214000000
H    -1.295000000     2.694000000    -6.166000000
C    -1.095000000     4.038000000    -4.583000000
O    -0.350000000     4.865000000    -5.344000000
C     0.890000000     5.114000000    -5.044000000
C     1.930000000     4.164000000    -4.987000000
H     1.737000000     3.131000000    -5.263000000
C     1.262000000     6.467000000    -4.778000000
H     0.547000000     7.284000000    -4.830000000
C     2.603000000     6.781000000    -4.383000000
H     2.878000000     7.776000000    -4.043000000
C     3.513000000     5.741000000    -4.238000000
H     4.468000000     6.013000000    -3.796000000
C     3.225000000     4.477000000    -4.624000000
O     4.109000000     3.445000000    -4.427000000
C     4.297000000     2.879000000    -3.200000000
C     5.197000000     1.853000000    -3.130000000
H     5.634000000     1.540000000    -4.074000000
C     5.549000000     1.216000000    -2.000000000
O     6.435000000     0.242000000    -1.988000000
C     6.521000000    -0.816000000    -1.120000000
C     7.503000000    -0.915000000    -0.087000000
H     8.184000000    -0.089000000     0.100000000
C     7.588000000    -1.973000000     0.761000000
H     8.251000000    -2.048000000     1.619000000
C     6.663000000    -3.053000000     0.515000000
H     6.652000000    -3.929000000     1.160000000
C     5.815000000    -3.041000000    -0.620000000
C     5.680000000    -1.908000000    -1.409000000
H     4.959000000    -1.861000000    -2.221000000
C     1.358000000    -1.486000000    -1.786000000
H     2.260000000    -2.058000000    -1.989000000
C     1.345000000    -0.849000000    -0.567000000
H     2.200000000    -1.010000000     0.085000000
C     0.304000000    -0.063000000    -0.116000000
H     0.300000000     0.478000000     0.910000000
C    -0.856000000    -0.077000000    -0.878000000
H    -1.708000000     0.451000000    -0.459000000
C    -0.878000000    -0.748000000    -2.096000000
H    -1.747000000    -0.634000000    -2.741000000
C     0.244000000    -1.406000000    -2.622000000
C     0.247000000    -2.136000000    -3.931000000
O    -0.722000000    -2.124000000    -4.654000000
O     1.297000000    -2.674000000    -4.289000000
O     0.914000000    -4.026000000    -6.482000000
H     1.011000000    -3.460000000    -5.717000000
H     0.468000000    -3.480000000    -7.129000000
O     2.752000000    -6.155000000    -6.152000000
H     3.247000000    -6.353000000    -5.357000000
H     2.332000000    -5.314000000    -5.969000000
O     1.982000000    -4.746000000    -9.392000000
H     2.925000000    -4.588000000    -9.444000000
H     1.675000000    -4.146000000    -8.712000000
O    -2.364000000    -4.002000000    -5.568000000
H    -1.822000000    -3.490000000    -4.968000000
H    -1.836000000    -4.079000000    -6.363000000
O    -0.920000000    -2.462000000    -7.359000000
H    -1.416000000    -1.726000000    -7.718000000
H    -0.892000000    -2.294000000    -6.417000000
O     2.289000000     0.981000000    -4.540000000
H     1.697000000     0.558000000    -5.162000000
H     1.711000000     1.468000000    -3.953000000
O    -3.525000000    -6.323000000    -6.115000000
H    -3.232000000    -5.437000000    -5.903000000
H    -4.230000000    -6.499000000    -5.492000000
O     2.795000000    -4.840000000    -3.243000000
H     2.297000000    -5.006000000    -2.443000000
H     2.213000000    -4.300000000    -3.779000000
O     3.768000000    -1.514000000    -4.551000000
H     2.978000000    -2.008000000    -4.774000000
H     3.443000000    -0.666000000    -4.250000000
O    -0.177000000    -8.281000000    -3.184000000
H    -0.288000000    -7.741000000    -3.967000000
H    -0.049000000    -9.168000000    -3.521000000
O    -4.608000000    -3.238000000    -7.254000000
H    -4.505000000    -4.157000000    -7.499000000
H    -4.121000000    -3.153000000    -6.434000000
O     3.637000000     1.475000000    -6.759000000
H     3.642000000     2.419000000    -6.912000000
H     3.433000000     1.383000000    -5.829000000
O     5.017000000    -4.221000000    -4.651000000
H     4.628000000    -3.579000000    -5.246000000
H     4.414000000    -4.255000000    -3.908000000
O    -2.418000000    -2.489000000   -10.248000000
H    -2.023000000    -1.666000000    -9.959000000
H    -2.384000000    -3.054000000    -9.477000000
O     0.417000000     0.192000000    -6.463000000
H    -0.373000000    -0.222000000    -6.116000000
H     0.109000000     0.708000000    -7.208000000
O    -0.048000000    -6.582000000    -5.128000000
H    -0.439000000    -5.709000000    -5.105000000
H     0.818000000    -6.447000000    -5.513000000
O    -1.445000000    -0.313000000    -8.903000000
H    -0.773000000     0.263000000    -9.269000000
H    -2.209000000     0.251000000    -8.791000000
O     0.731000000     2.026000000    -2.736000000
H     0.816000000     1.235000000    -2.204000000
H    -0.177000000     2.303000000    -2.610000000
O     4.753000000    -1.813000000    -7.209000000
H     4.521000000    -1.319000000    -6.423000000
H     4.136000000    -1.508000000    -7.874000000
