215
-1448.52920
C     4.330000000    -2.784000000    -1.216000000
H     3.483000000    -3.465000000    -1.255000000
C     4.368000000    -1.864000000    -0.111000000
C     5.285000000    -0.835000000    -0.187000000
H     5.309000000    -0.020000000     0.531000000
C     3.472000000    -1.950000000     1.104000000
O     3.249000000    -3.340000000     1.463000000
H     2.516000000    -1.424000000     0.967000000
O     4.085000000    -1.270000000     2.226000000
C     3.326000000    -0.570000000     3.125000000
C     3.236000000     0.781000000     2.908000000
H     3.795000000     1.263000000     2.110000000
C     2.442000000     1.591000000     3.696000000
O     2.243000000     2.919000000     3.370000000
C     1.564000000     0.975000000     4.611000000
C     0.387000000     1.639000000     5.318000000
H     0.032000000     1.099000000     6.198000000
C    -0.804000000     1.791000000     4.359000000
C    -1.904000000     0.989000000     4.530000000
H    -1.879000000     0.223000000     5.301000000
H     0.578000000     2.595000000     5.810000000
C     1.603000000    -0.387000000     4.834000000
H     0.926000000    -0.891000000     5.519000000
C     2.500000000    -1.166000000     4.114000000
C     2.379000000    -2.699000000     4.114000000
H     2.115000000    -3.051000000     5.113000000
H     3.415000000    -3.028000000     4.008000000
C     1.525000000    -3.355000000     3.070000000
C     0.192000000    -3.584000000     3.383000000
H    -0.171000000    -3.426000000     4.396000000
C     1.978000000    -3.641000000     1.784000000
C     1.152000000    -4.132000000     0.853000000
H     1.438000000    -4.472000000    -0.139000000
C    -0.181000000    -4.398000000     1.128000000
O    -0.940000000    -4.873000000     0.085000000
C    -1.705000000    -3.859000000    -0.522000000
C    -1.628000000    -3.855000000    -2.051000000
C    -2.756000000    -3.412000000    -2.746000000
H    -3.639000000    -3.056000000    -2.222000000
C    -0.416000000    -4.042000000    -2.746000000
H     0.458000000    -4.309000000    -2.157000000
O    -3.076000000    -3.894000000    -0.076000000
H    -1.344000000    -2.879000000    -0.175000000
C    -0.674000000    -4.164000000     2.435000000
C    -2.137000000    -4.444000000     2.716000000
H    -2.278000000    -4.616000000     3.785000000
H    -2.444000000    -5.356000000     2.199000000
C    -2.956000000    -3.245000000     2.237000000
C    -3.171000000    -2.177000000     3.130000000
H    -2.721000000    -2.217000000     4.118000000
C    -3.499000000    -3.073000000     0.961000000
C    -4.196000000    -1.955000000     0.559000000
H    -4.410000000    -1.775000000    -0.491000000
C    -4.434000000    -0.960000000     1.437000000
O    -4.861000000     0.211000000     0.866000000
C    -3.977000000     1.349000000     0.647000000
C    -4.143000000     2.019000000    -0.663000000
C    -4.945000000     1.439000000    -1.655000000
H    -5.646000000     0.623000000    -1.499000000
C    -3.492000000     3.261000000    -0.924000000
H    -3.011000000     3.718000000    -0.063000000
O    -4.073000000     2.242000000     1.830000000
H    -3.026000000     0.804000000     0.555000000
C    -3.967000000    -1.093000000     2.770000000
C    -4.086000000     0.047000000     3.748000000
H    -4.068000000    -0.354000000     4.764000000
H    -5.071000000     0.478000000     3.559000000
C    -3.006000000     1.066000000     3.671000000
C    -3.012000000     2.112000000     2.737000000
C    -1.995000000     2.972000000     2.550000000
H    -1.948000000     3.686000000     1.732000000
C    -0.894000000     2.821000000     3.361000000
O     0.158000000     3.699000000     3.191000000
C     1.295000000     3.183000000     2.502000000
H     0.826000000     2.350000000     1.959000000
C     1.850000000     4.204000000     1.527000000
C     3.033000000     3.919000000     0.852000000
H     3.557000000     2.981000000     1.015000000
C     1.050000000     5.303000000     1.139000000
H     0.102000000     5.547000000     1.611000000
C     1.507000000     6.130000000     0.083000000
O     0.713000000     7.142000000    -0.396000000
C     2.762000000     5.980000000    -0.478000000
H     3.047000000     6.607000000    -1.319000000
C     3.489000000     4.736000000    -0.241000000
O     4.581000000     4.441000000    -1.015000000
C     5.628000000     3.655000000    -0.561000000
C     5.718000000     2.355000000    -1.126000000
H     5.066000000     2.084000000    -1.952000000
C     6.512000000     4.064000000     0.441000000
H     6.476000000     5.095000000     0.782000000
C     7.565000000     3.195000000     0.802000000
H     8.292000000     3.503000000     1.549000000
C     7.633000000     1.867000000     0.275000000
H     8.418000000     1.154000000     0.511000000
C     6.713000000     1.492000000    -0.706000000
O     7.010000000     0.297000000    -1.373000000
C     6.054000000    -0.694000000    -1.350000000
C     6.019000000    -1.638000000    -2.399000000
H     6.769000000    -1.505000000    -3.175000000
C     5.177000000    -2.724000000    -2.325000000
O     5.281000000    -3.873000000    -3.080000000
C     4.198000000    -4.537000000    -3.558000000
C     3.058000000    -3.854000000    -4.021000000
H     2.985000000    -2.782000000    -4.191000000
C     4.187000000    -5.902000000    -3.532000000
H     5.026000000    -6.490000000    -3.169000000
C     3.103000000    -6.671000000    -4.064000000
H     3.108000000    -7.758000000    -4.045000000
C     1.944000000    -6.014000000    -4.443000000
H     1.072000000    -6.578000000    -4.764000000
C     1.914000000    -4.612000000    -4.424000000
O     0.824000000    -3.951000000    -4.837000000
C    -0.314000000    -3.877000000    -4.092000000
C    -1.474000000    -3.416000000    -4.760000000
H    -1.433000000    -3.236000000    -5.831000000
C    -2.688000000    -3.190000000    -4.143000000
O    -3.784000000    -2.881000000    -4.932000000
C    -4.865000000    -2.124000000    -4.543000000
C    -4.657000000    -0.739000000    -4.297000000
H    -3.655000000    -0.324000000    -4.217000000
C    -6.140000000    -2.719000000    -4.469000000
H    -6.193000000    -3.750000000    -4.810000000
C    -7.238000000    -1.932000000    -4.131000000
H    -8.200000000    -2.409000000    -3.965000000
C    -7.068000000    -0.565000000    -3.845000000
H    -7.928000000     0.039000000    -3.568000000
C    -5.847000000     0.060000000    -3.971000000
O    -5.714000000     1.391000000    -3.872000000
C    -4.936000000     2.001000000    -2.895000000
C    -4.213000000     3.177000000    -3.176000000
H    -4.269000000     3.749000000    -4.098000000
C    -3.408000000     3.800000000    -2.212000000
O    -2.922000000     5.038000000    -2.501000000
C    -2.511000000     5.841000000    -1.516000000
C    -3.331000000     6.322000000    -0.476000000
H    -4.354000000     5.958000000    -0.444000000
C    -2.870000000     7.148000000     0.535000000
H    -3.584000000     7.533000000     1.259000000
C    -1.535000000     7.496000000     0.538000000
H    -1.065000000     8.097000000     1.312000000
C    -0.645000000     6.969000000    -0.444000000
C    -1.171000000     6.138000000    -1.496000000
H    -0.453000000     5.592000000    -2.102000000
C    -0.057000000    -0.029000000    -2.991000000
H    -0.508000000    -0.186000000    -3.968000000
C    -0.874000000    -0.035000000    -1.831000000
H    -1.952000000    -0.176000000    -1.862000000
C    -0.358000000     0.122000000    -0.556000000
H    -1.008000000     0.141000000     0.340000000
C     1.028000000     0.296000000    -0.477000000
H     1.609000000     0.499000000     0.420000000
C     1.854000000     0.308000000    -1.583000000
H     2.917000000     0.523000000    -1.512000000
C     1.354000000     0.225000000    -2.903000000
C     2.133000000     0.476000000    -4.126000000
O     3.288000000     0.716000000    -3.893000000
O     1.751000000     0.210000000    -5.263000000
O     4.567000000    -1.393000000    -5.278000000
H     3.733000000    -1.250000000    -5.725000000
H     4.491000000    -0.895000000    -4.464000000
O     4.878000000     2.970000000    -4.490000000
H     4.209000000     2.370000000    -4.161000000
H     5.046000000     2.674000000    -5.385000000
O     0.640000000    -3.392000000    -7.812000000
H     0.486000000    -3.152000000    -8.726000000
H    -0.225000000    -3.623000000    -7.476000000
O     3.664000000     5.392000000    -8.162000000
H     3.003000000     5.777000000    -7.587000000
H     3.386000000     5.639000000    -9.044000000
O    -1.869000000     0.091000000    -6.173000000
H    -1.596000000    -0.001000000    -7.086000000
H    -2.537000000    -0.583000000    -6.053000000
O    -1.691000000     4.068000000    -6.491000000
H    -0.989000000     3.457000000    -6.270000000
H    -1.833000000     4.570000000    -5.688000000
O     4.276000000     5.335000000    -3.822000000
H     4.766000000     4.636000000    -4.255000000
H     4.679000000     5.409000000    -2.957000000
O     0.789000000     0.800000000   -10.553000000
H     0.457000000     1.697000000   -10.516000000
H     0.108000000     0.275000000   -10.132000000
O     6.695000000    -3.174000000    -5.976000000
H     6.063000000    -2.546000000    -5.625000000
H     6.463000000    -4.005000000    -5.561000000
O     2.504000000    -1.468000000    -7.015000000
H     2.080000000    -0.840000000    -6.431000000
H     1.890000000    -2.200000000    -7.067000000
O     7.758000000     2.937000000    -4.239000000
H     7.625000000     2.139000000    -4.750000000
H     6.880000000     3.305000000    -4.138000000
O     2.690000000     3.233000000    -9.360000000
H     3.171000000     3.739000000    -8.706000000
H     2.860000000     2.319000000    -9.129000000
O     1.426000000     4.610000000    -4.184000000
H     1.388000000     3.659000000    -4.285000000
H     2.321000000     4.785000000    -3.891000000
O     6.493000000     0.710000000    -5.707000000
H     5.913000000     0.234000000    -5.112000000
H     5.900000000     1.170000000    -6.301000000
O     4.842000000     2.203000000    -7.228000000
H     5.424000000     2.581000000    -7.887000000
H     4.266000000     1.621000000    -7.723000000
O     0.168000000     6.904000000    -5.120000000
H     0.582000000     6.183000000    -4.645000000
H     0.588000000     7.691000000    -4.773000000
O     4.307000000    -2.282000000    -8.895000000
H     4.992000000    -2.714000000    -8.385000000
H     3.676000000    -1.980000000    -8.241000000
O    -0.030000000     1.956000000    -6.270000000
H     0.767000000     1.486000000    -6.025000000
H    -0.741000000     1.355000000    -6.045000000
O     2.814000000     0.858000000    -8.502000000
H     2.213000000     0.570000000    -9.189000000
H     2.572000000     0.336000000    -7.737000000
