215
-1468.39204
C    -4.100000000    -2.163000000    -1.561000000
H    -4.766000000    -1.310000000    -1.667000000
C    -3.430000000    -2.461000000    -0.398000000
C    -2.534000000    -3.604000000    -0.408000000
H    -2.094000000    -3.852000000     0.555000000
C    -3.400000000    -1.561000000     0.828000000
O    -4.519000000    -0.608000000     0.770000000
H    -2.426000000    -1.054000000     0.765000000
O    -3.691000000    -2.390000000     2.033000000
C    -2.886000000    -2.137000000     3.168000000
C    -1.812000000    -2.955000000     3.303000000
H    -1.741000000    -3.875000000     2.728000000
C    -0.748000000    -2.530000000     4.082000000
O     0.478000000    -3.202000000     4.109000000
C    -0.856000000    -1.292000000     4.765000000
C     0.345000000    -0.756000000     5.529000000
H     0.026000000    -0.203000000     6.415000000
C     1.220000000     0.057000000     4.676000000
C     1.070000000     1.450000000     4.550000000
H     0.237000000     1.919000000     5.067000000
H     0.916000000    -1.587000000     5.949000000
C    -1.966000000    -0.458000000     4.624000000
H    -2.115000000     0.503000000     5.110000000
C    -3.063000000    -0.937000000     3.851000000
C    -4.147000000     0.054000000     3.513000000
H    -4.242000000     0.626000000     4.438000000
H    -5.139000000    -0.378000000     3.369000000
C    -3.896000000     0.998000000     2.395000000
C    -3.406000000     2.326000000     2.617000000
H    -3.076000000     2.537000000     3.631000000
C    -4.182000000     0.676000000     1.099000000
C    -4.133000000     1.617000000     0.027000000
H    -4.301000000     1.223000000    -0.972000000
C    -3.776000000     2.909000000     0.249000000
O    -3.602000000     3.818000000    -0.751000000
C    -2.259000000     3.768000000    -1.262000000
C    -2.153000000     3.539000000    -2.755000000
C    -0.908000000     3.689000000    -3.424000000
H    -0.112000000     4.159000000    -2.852000000
C    -3.127000000     2.750000000    -3.393000000
H    -4.003000000     2.447000000    -2.824000000
O    -1.588000000     4.956000000    -0.846000000
H    -1.856000000     2.823000000    -0.866000000
C    -3.349000000     3.286000000     1.562000000
C    -2.794000000     4.669000000     1.847000000
H    -2.855000000     4.786000000     2.931000000
H    -3.347000000     5.380000000     1.229000000
C    -1.287000000     4.604000000     1.584000000
C    -0.502000000     4.286000000     2.678000000
H    -1.002000000     4.252000000     3.643000000
C    -0.775000000     4.801000000     0.298000000
C     0.547000000     4.578000000     0.176000000
H     0.950000000     4.613000000    -0.833000000
C     1.439000000     4.385000000     1.282000000
O     2.750000000     4.160000000     0.915000000
C     3.058000000     2.721000000     0.901000000
C     3.998000000     2.428000000    -0.275000000
C     4.050000000     3.335000000    -1.364000000
H     3.512000000     4.269000000    -1.505000000
C     4.687000000     1.257000000    -0.360000000
H     4.531000000     0.434000000     0.332000000
O     3.642000000     2.428000000     2.160000000
H     2.078000000     2.235000000     0.779000000
C     0.893000000     4.120000000     2.562000000
C     1.620000000     3.752000000     3.769000000
H     1.115000000     4.032000000     4.696000000
H     2.615000000     4.203000000     3.772000000
C     1.858000000     2.223000000     3.721000000
C     2.940000000     1.639000000     3.057000000
C     3.156000000     0.260000000     3.092000000
H     3.951000000    -0.222000000     2.530000000
C     2.291000000    -0.526000000     3.923000000
O     2.487000000    -1.883000000     4.008000000
C     1.519000000    -2.718000000     3.245000000
H     1.038000000    -2.053000000     2.512000000
C     2.224000000    -3.889000000     2.528000000
C     1.555000000    -5.123000000     2.431000000
H     0.617000000    -5.358000000     2.925000000
C     3.349000000    -3.631000000     1.714000000
H     3.741000000    -2.619000000     1.767000000
C     3.837000000    -4.667000000     0.892000000
O     5.035000000    -4.412000000     0.151000000
C     3.282000000    -5.915000000     0.814000000
H     3.824000000    -6.760000000     0.397000000
C     2.146000000    -6.092000000     1.572000000
O     1.518000000    -7.290000000     1.504000000
C     0.243000000    -7.345000000     0.970000000
C     0.024000000    -6.514000000    -0.171000000
H     0.798000000    -6.065000000    -0.787000000
C    -0.782000000    -7.893000000     1.679000000
H    -0.507000000    -8.440000000     2.577000000
C    -2.096000000    -7.692000000     1.265000000
H    -2.862000000    -8.237000000     1.811000000
C    -2.276000000    -6.909000000     0.143000000
H    -3.256000000    -6.914000000    -0.326000000
C    -1.266000000    -6.289000000    -0.551000000
O    -1.532000000    -5.449000000    -1.653000000
C    -2.333000000    -4.316000000    -1.527000000
C    -2.961000000    -3.936000000    -2.752000000
H    -2.748000000    -4.543000000    -3.628000000
C    -3.884000000    -2.906000000    -2.706000000
O    -4.717000000    -2.663000000    -3.802000000
C    -5.216000000    -1.419000000    -4.214000000
C    -4.404000000    -0.338000000    -4.490000000
H    -3.334000000    -0.518000000    -4.414000000
C    -6.542000000    -1.261000000    -4.541000000
H    -7.261000000    -2.061000000    -4.382000000
C    -7.032000000    -0.044000000    -5.019000000
H    -8.051000000    -0.013000000    -5.396000000
C    -6.211000000     1.023000000    -5.209000000
H    -6.650000000     1.930000000    -5.618000000
C    -4.843000000     0.890000000    -5.008000000
O    -4.075000000     1.951000000    -5.331000000
C    -2.967000000     2.374000000    -4.685000000
C    -1.790000000     2.556000000    -5.377000000
H    -1.613000000     2.181000000    -6.382000000
C    -0.773000000     3.240000000    -4.719000000
O     0.545000000     3.306000000    -5.341000000
C     1.501000000     4.143000000    -4.920000000
C     2.677000000     3.583000000    -4.381000000
H     2.699000000     2.542000000    -4.070000000
C     1.476000000     5.467000000    -5.255000000
H     0.577000000     5.865000000    -5.719000000
C     2.646000000     6.232000000    -5.140000000
H     2.734000000     7.227000000    -5.568000000
C     3.795000000     5.670000000    -4.585000000
H     4.733000000     6.187000000    -4.402000000
C     3.868000000     4.314000000    -4.210000000
O     4.973000000     3.802000000    -3.553000000
C     4.920000000     3.048000000    -2.423000000
C     5.762000000     1.976000000    -2.427000000
H     6.469000000     1.823000000    -3.239000000
C     5.534000000     0.996000000    -1.446000000
O     6.210000000    -0.176000000    -1.569000000
C     6.351000000    -1.108000000    -0.566000000
C     7.042000000    -0.787000000     0.622000000
H     7.528000000     0.170000000     0.794000000
C     7.196000000    -1.753000000     1.626000000
H     7.712000000    -1.406000000     2.518000000
C     6.544000000    -3.018000000     1.483000000
H     6.495000000    -3.784000000     2.252000000
C     5.836000000    -3.263000000     0.315000000
C     5.691000000    -2.329000000    -0.686000000
H     5.168000000    -2.556000000    -1.611000000
C     0.941000000    -2.445000000    -1.277000000
H     1.728000000    -3.177000000    -1.115000000
C     0.944000000    -1.418000000    -0.302000000
H     1.637000000    -1.333000000     0.532000000
C     0.056000000    -0.410000000    -0.474000000
H    -0.014000000     0.355000000     0.269000000
C    -0.806000000    -0.351000000    -1.573000000
H    -1.541000000     0.443000000    -1.675000000
C    -0.752000000    -1.286000000    -2.583000000
H    -1.421000000    -1.237000000    -3.438000000
C     0.074000000    -2.407000000    -2.376000000
C     0.232000000    -3.443000000    -3.410000000
O    -0.409000000    -3.346000000    -4.462000000
O     1.115000000    -4.298000000    -3.274000000
O     6.368000000    -2.903000000    -4.093000000
H     5.456000000    -2.617000000    -4.034000000
H     6.836000000    -2.342000000    -3.474000000
O     0.537000000    -4.516000000    -8.198000000
H     0.093000000    -4.628000000    -7.357000000
H     0.892000000    -5.382000000    -8.398000000
O    -1.436000000    -5.098000000    -5.977000000
H    -0.856000000    -4.673000000    -5.344000000
H    -1.811000000    -5.838000000    -5.499000000
O    -1.710000000    -7.522000000    -4.659000000
H    -0.780000000    -7.375000000    -4.487000000
H    -2.087000000    -7.702000000    -3.798000000
O     3.331000000    -5.862000000    -3.572000000
H     3.900000000    -5.721000000    -2.816000000
H     2.572000000    -5.303000000    -3.409000000
O    -0.486000000    -1.927000000    -8.933000000
H     0.229000000    -2.553000000    -8.819000000
H    -0.706000000    -1.650000000    -8.043000000
O    -0.766000000    -1.209000000    -6.303000000
H    -0.400000000    -0.470000000    -5.816000000
H    -0.643000000    -1.961000000    -5.724000000
O     3.247000000    -8.774000000    -2.151000000
H     2.617000000    -8.055000000    -2.186000000
H     2.856000000    -9.407000000    -1.549000000
O     0.806000000    -6.849000000    -4.193000000
H     1.743000000    -6.947000000    -4.365000000
H     0.720000000    -5.965000000    -3.836000000
O     4.043000000    -1.361000000    -3.885000000
H     4.465000000    -0.653000000    -4.373000000
H     3.343000000    -0.930000000    -3.395000000
O     2.870000000    -3.363000000    -5.155000000
H     2.077000000    -3.619000000    -4.683000000
H     3.266000000    -2.685000000    -4.608000000
O     2.848000000    -1.205000000    -6.777000000
H     2.971000000    -1.842000000    -6.073000000
H     3.707000000    -0.796000000    -6.883000000
O    -2.685000000    -3.144000000    -7.213000000
H    -2.231000000    -3.738000000    -6.616000000
H    -2.400000000    -2.271000000    -6.945000000
O     1.237000000    -7.056000000    -8.134000000
H     1.817000000    -6.923000000    -7.385000000
H     1.820000000    -7.051000000    -8.893000000
O     0.022000000    -9.275000000    -2.968000000
H     0.356000000    -8.515000000    -3.445000000
H     0.176000000   -10.014000000    -3.557000000
O     1.166000000     0.481000000    -5.480000000
H     1.593000000    -0.050000000    -6.153000000
H     1.268000000     1.383000000    -5.786000000
O    -5.047000000    -4.807000000    -5.565000000
H    -4.682000000    -3.961000000    -5.304000000
H    -5.585000000    -4.609000000    -6.332000000
O     2.173000000     0.101000000    -2.664000000
H     1.324000000     0.231000000    -3.087000000
H     1.967000000    -0.371000000    -1.856000000
O     3.570000000    -5.822000000    -6.925000000
H     3.523000000    -5.181000000    -6.216000000
H     3.555000000    -5.296000000    -7.725000000
