215
-1449.89982
C    -4.656000000    -1.773000000    -1.860000000
H    -5.195000000    -0.836000000    -1.978000000
C    -4.099000000    -2.285000000    -0.658000000
C    -3.356000000    -3.461000000    -0.642000000
H    -2.775000000    -3.741000000     0.232000000
C    -4.132000000    -1.487000000     0.622000000
O    -5.258000000    -0.570000000     0.813000000
H    -3.280000000    -0.799000000     0.719000000
O    -4.033000000    -2.318000000     1.842000000
C    -3.083000000    -1.962000000     2.778000000
C    -1.918000000    -2.708000000     2.852000000
H    -1.817000000    -3.570000000     2.197000000
C    -0.900000000    -2.370000000     3.716000000
O     0.209000000    -3.125000000     3.678000000
C    -1.096000000    -1.244000000     4.518000000
C     0.032000000    -0.752000000     5.394000000
H    -0.438000000    -0.087000000     6.122000000
C     1.117000000     0.058000000     4.670000000
C     0.978000000     1.425000000     4.759000000
H     0.190000000     1.913000000     5.328000000
H     0.542000000    -1.566000000     5.914000000
C    -2.266000000    -0.539000000     4.556000000
H    -2.412000000     0.248000000     5.291000000
C    -3.243000000    -0.912000000     3.626000000
C    -4.456000000    -0.018000000     3.473000000
H    -4.608000000     0.673000000     4.305000000
H    -5.301000000    -0.702000000     3.376000000
C    -4.430000000     0.970000000     2.284000000
C    -3.788000000     2.206000000     2.473000000
H    -3.392000000     2.503000000     3.441000000
C    -4.902000000     0.702000000     1.045000000
C    -4.566000000     1.466000000    -0.034000000
H    -4.828000000     1.174000000    -1.048000000
C    -3.896000000     2.664000000     0.102000000
O    -3.478000000     3.362000000    -1.025000000
C    -2.020000000     3.334000000    -1.270000000
C    -1.716000000     3.120000000    -2.706000000
C    -0.275000000     3.018000000    -3.172000000
H     0.570000000     3.160000000    -2.503000000
C    -2.656000000     2.540000000    -3.534000000
H    -3.703000000     2.426000000    -3.269000000
O    -1.353000000     4.501000000    -0.752000000
H    -1.721000000     2.425000000    -0.727000000
C    -3.546000000     3.069000000     1.408000000
C    -2.798000000     4.362000000     1.645000000
H    -3.031000000     4.808000000     2.614000000
H    -3.107000000     5.161000000     0.967000000
C    -1.302000000     4.288000000     1.629000000
C    -0.554000000     4.211000000     2.764000000
H    -1.069000000     4.071000000     3.711000000
C    -0.666000000     4.482000000     0.406000000
C     0.721000000     4.521000000     0.311000000
H     1.260000000     4.797000000    -0.592000000
C     1.459000000     4.188000000     1.439000000
O     2.772000000     4.011000000     1.279000000
C     3.246000000     2.624000000     1.168000000
C     4.484000000     2.406000000     0.216000000
C     4.520000000     3.117000000    -0.981000000
H     3.768000000     3.882000000    -1.160000000
C     5.415000000     1.372000000     0.340000000
H     5.408000000     0.842000000     1.289000000
O     3.694000000     2.266000000     2.465000000
H     2.417000000     2.017000000     0.775000000
C     0.814000000     3.986000000     2.650000000
C     1.614000000     3.695000000     3.930000000
H     1.085000000     4.054000000     4.816000000
H     2.533000000     4.282000000     3.877000000
C     1.907000000     2.204000000     4.099000000
C     2.901000000     1.618000000     3.312000000
C     3.141000000     0.235000000     3.318000000
H     4.024000000    -0.179000000     2.837000000
C     2.206000000    -0.561000000     3.949000000
O     2.252000000    -1.905000000     3.750000000
C     1.287000000    -2.609000000     2.927000000
H     0.898000000    -1.912000000     2.170000000
C     1.962000000    -3.704000000     2.180000000
C     1.300000000    -4.928000000     1.953000000
H     0.350000000    -5.219000000     2.393000000
C     3.124000000    -3.383000000     1.505000000
H     3.598000000    -2.415000000     1.645000000
C     3.670000000    -4.376000000     0.659000000
O     4.916000000    -4.147000000    -0.061000000
C     3.032000000    -5.612000000     0.508000000
H     3.476000000    -6.357000000    -0.147000000
C     1.843000000    -5.857000000     1.088000000
O     1.145000000    -6.996000000     0.818000000
C    -0.206000000    -6.935000000     0.628000000
C    -0.676000000    -6.288000000    -0.463000000
H    -0.100000000    -5.898000000    -1.298000000
C    -1.091000000    -7.313000000     1.606000000
H    -0.772000000    -7.700000000     2.571000000
C    -2.442000000    -7.225000000     1.358000000
H    -3.081000000    -7.478000000     2.200000000
C    -2.902000000    -6.514000000     0.272000000
H    -3.956000000    -6.350000000     0.062000000
C    -2.012000000    -6.116000000    -0.670000000
O    -2.438000000    -5.389000000    -1.770000000
C    -3.217000000    -4.214000000    -1.765000000
C    -3.890000000    -3.862000000    -2.951000000
H    -3.750000000    -4.528000000    -3.799000000
C    -4.570000000    -2.644000000    -3.009000000
O    -5.326000000    -2.327000000    -4.135000000
C    -5.319000000    -1.070000000    -4.744000000
C    -4.233000000    -0.224000000    -4.738000000
H    -3.260000000    -0.603000000    -4.434000000
C    -6.489000000    -0.676000000    -5.391000000
H    -7.302000000    -1.397000000    -5.360000000
C    -6.615000000     0.496000000    -6.110000000
H    -7.451000000     0.752000000    -6.756000000
C    -5.527000000     1.329000000    -6.176000000
H    -5.501000000     2.244000000    -6.761000000
C    -4.414000000     1.017000000    -5.448000000
O    -3.378000000     1.905000000    -5.675000000
C    -2.312000000     2.238000000    -4.853000000
C    -1.020000000     2.312000000    -5.367000000
H    -0.844000000     2.023000000    -6.400000000
C     0.009000000     2.687000000    -4.465000000
O     1.333000000     2.773000000    -4.910000000
C     2.281000000     3.757000000    -4.518000000
C     3.522000000     3.272000000    -4.051000000
H     3.745000000     2.219000000    -3.900000000
C     2.055000000     5.112000000    -4.698000000
H     1.126000000     5.573000000    -5.025000000
C     3.107000000     5.988000000    -4.486000000
H     2.913000000     7.055000000    -4.557000000
C     4.235000000     5.537000000    -3.850000000
H     4.988000000     6.211000000    -3.450000000
C     4.483000000     4.193000000    -3.651000000
O     5.604000000     3.748000000    -3.032000000
C     5.463000000     2.868000000    -1.954000000
C     6.292000000     1.815000000    -1.838000000
H     6.990000000     1.629000000    -2.651000000
C     6.268000000     1.012000000    -0.702000000
O     7.283000000     0.047000000    -0.503000000
C     7.006000000    -1.129000000     0.092000000
C     7.562000000    -1.330000000     1.322000000
H     8.253000000    -0.593000000     1.724000000
C     7.276000000    -2.432000000     2.116000000
H     7.721000000    -2.590000000     3.095000000
C     6.384000000    -3.356000000     1.568000000
H     6.072000000    -4.196000000     2.184000000
C     5.798000000    -3.189000000     0.341000000
C     6.061000000    -2.025000000    -0.414000000
H     5.493000000    -1.725000000    -1.290000000
C     1.055000000    -1.971000000    -1.112000000
H     1.966000000    -2.564000000    -1.093000000
C     0.879000000    -0.829000000    -0.315000000
H     1.512000000    -0.583000000     0.534000000
C    -0.182000000     0.078000000    -0.579000000
H    -0.148000000     0.966000000     0.058000000
C    -1.140000000    -0.294000000    -1.539000000
H    -2.006000000     0.345000000    -1.694000000
C    -0.995000000    -1.427000000    -2.299000000
H    -1.810000000    -1.740000000    -2.946000000
C     0.143000000    -2.330000000    -2.110000000
C     0.454000000    -3.530000000    -2.953000000
O    -0.296000000    -3.808000000    -3.842000000
O     1.423000000    -4.188000000    -2.739000000
O     0.554000000    -7.508000000    -7.546000000
H     0.785000000    -6.932000000    -6.818000000
H     0.627000000    -8.392000000    -7.185000000
O    -1.486000000    -5.653000000    -8.083000000
H    -0.867000000    -6.374000000    -7.969000000
H    -1.648000000    -5.334000000    -7.195000000
O    -1.995000000    -4.935000000    -5.629000000
H    -1.357000000    -4.499000000    -5.064000000
H    -2.230000000    -5.732000000    -5.154000000
O    -2.378000000    -7.099000000    -3.871000000
H    -2.383000000    -6.509000000    -3.118000000
H    -1.678000000    -7.723000000    -3.681000000
O     1.952000000    -6.891000000    -2.541000000
H     1.749000000    -5.955000000    -2.533000000
H     2.253000000    -7.077000000    -1.652000000
O    -1.362000000    -2.329000000    -8.627000000
H    -0.561000000    -2.690000000    -9.005000000
H    -1.151000000    -2.192000000    -7.703000000
O    -0.340000000    -2.451000000    -6.068000000
H     0.142000000    -1.657000000    -5.837000000
H    -0.357000000    -2.964000000    -5.260000000
O     1.214000000    -5.884000000    -5.256000000
H     2.027000000    -6.061000000    -4.783000000
H     0.675000000    -5.399000000    -4.631000000
O     4.062000000    -1.589000000    -3.930000000
H     4.123000000    -1.169000000    -4.788000000
H     3.743000000    -0.900000000    -3.348000000
O     3.784000000    -5.689000000    -7.373000000
H     3.844000000    -5.819000000    -8.319000000
H     3.462000000    -4.794000000    -7.273000000
O     5.172000000    -6.329000000    -2.145000000
H     4.819000000    -5.451000000    -2.292000000
H     4.773000000    -6.865000000    -2.831000000
O     3.970000000    -4.344000000    -3.634000000
H     3.053000000    -4.223000000    -3.387000000
H     4.274000000    -3.466000000    -3.864000000
O     2.017000000    -3.580000000    -7.402000000
H     1.463000000    -4.165000000    -6.884000000
H     1.562000000    -2.738000000    -7.380000000
O    -3.674000000    -3.097000000    -7.166000000
H    -3.073000000    -3.150000000    -7.909000000
H    -3.285000000    -3.666000000    -6.502000000
O    -0.220000000    -8.523000000    -3.245000000
H     0.498000000    -7.902000000    -3.371000000
H     0.016000000    -9.005000000    -2.453000000
O     0.817000000    -0.011000000    -5.774000000
H     1.768000000    -0.061000000    -5.673000000
H     0.624000000     0.926000000    -5.764000000
O     2.798000000     0.569000000    -2.069000000
H     2.301000000     1.179000000    -2.614000000
H     2.147000000     0.193000000    -1.476000000
O     5.993000000    -5.474000000    -5.354000000
H     5.132000000    -5.274000000    -4.986000000
H     5.813000000    -5.725000000    -6.261000000
O     4.549000000    -2.827000000    -7.173000000
H     4.405000000    -1.922000000    -7.449000000
H     3.672000000    -3.163000000    -6.986000000
