215
-1451.31078
C    -4.788000000    -2.165000000    -0.509000000
H    -5.181000000    -1.152000000    -0.492000000
C    -3.961000000    -2.607000000     0.528000000
C    -3.323000000    -3.867000000     0.433000000
H    -2.567000000    -4.106000000     1.176000000
C    -3.652000000    -1.548000000     1.576000000
O    -4.596000000    -0.408000000     1.737000000
H    -2.669000000    -1.173000000     1.256000000
O    -3.492000000    -2.048000000     2.904000000
C    -2.373000000    -1.706000000     3.617000000
C    -1.283000000    -2.553000000     3.514000000
H    -1.368000000    -3.486000000     2.962000000
C    -0.092000000    -2.102000000     4.034000000
O     1.016000000    -2.875000000     3.827000000
C     0.014000000    -0.865000000     4.668000000
C     1.297000000    -0.394000000     5.334000000
H     1.004000000     0.283000000     6.139000000
C     2.118000000     0.290000000     4.279000000
C     2.052000000     1.706000000     4.148000000
H     1.245000000     2.268000000     4.611000000
H     1.779000000    -1.218000000     5.864000000
C    -1.131000000    -0.099000000     4.833000000
H    -1.128000000     0.856000000     5.352000000
C    -2.340000000    -0.477000000     4.203000000
C    -3.497000000     0.470000000     4.170000000
H    -3.355000000     1.117000000     5.038000000
H    -4.457000000    -0.031000000     4.308000000
C    -3.555000000     1.394000000     2.969000000
C    -2.906000000     2.608000000     3.039000000
H    -2.340000000     2.939000000     3.906000000
C    -4.101000000     0.878000000     1.777000000
C    -4.077000000     1.625000000     0.617000000
H    -4.509000000     1.109000000    -0.236000000
C    -3.459000000     2.828000000     0.620000000
O    -3.362000000     3.448000000    -0.615000000
C    -2.060000000     3.500000000    -1.256000000
C    -2.181000000     3.302000000    -2.768000000
C    -1.526000000     3.997000000    -3.812000000
H    -0.761000000     4.738000000    -3.594000000
C    -3.114000000     2.309000000    -3.135000000
H    -3.366000000     1.486000000    -2.471000000
O    -1.348000000     4.703000000    -0.975000000
H    -1.520000000     2.647000000    -0.819000000
C    -2.864000000     3.269000000     1.830000000
C    -2.199000000     4.676000000     1.893000000
H    -2.204000000     5.074000000     2.910000000
H    -2.727000000     5.383000000     1.249000000
C    -0.762000000     4.509000000     1.389000000
C     0.209000000     4.200000000     2.377000000
H    -0.004000000     4.072000000     3.435000000
C    -0.397000000     4.637000000     0.077000000
C     0.927000000     4.538000000    -0.294000000
H     1.049000000     4.593000000    -1.373000000
C     1.922000000     4.243000000     0.613000000
O     3.197000000     3.938000000     0.156000000
C     3.470000000     2.547000000     0.218000000
C     3.914000000     1.986000000    -1.183000000
C     3.497000000     2.653000000    -2.357000000
H     2.726000000     3.418000000    -2.351000000
C     4.740000000     0.888000000    -1.156000000
H     4.927000000     0.339000000    -0.236000000
O     4.333000000     2.226000000     1.334000000
H     2.515000000     2.041000000     0.423000000
C     1.577000000     4.143000000     2.010000000
C     2.620000000     3.894000000     3.075000000
H     2.246000000     4.355000000     3.992000000
H     3.534000000     4.462000000     2.885000000
C     2.859000000     2.412000000     3.256000000
C     3.668000000     1.659000000     2.415000000
C     3.798000000     0.245000000     2.510000000
H     4.470000000    -0.349000000     1.896000000
C     3.012000000    -0.395000000     3.410000000
O     2.981000000    -1.719000000     3.348000000
C     1.906000000    -2.405000000     2.775000000
H     1.353000000    -1.817000000     2.027000000
C     2.506000000    -3.555000000     2.040000000
C     1.650000000    -4.534000000     1.542000000
H     0.595000000    -4.410000000     1.770000000
C     3.893000000    -3.631000000     1.673000000
H     4.593000000    -2.821000000     1.863000000
C     4.341000000    -4.622000000     0.836000000
O     5.690000000    -4.539000000     0.437000000
C     3.461000000    -5.571000000     0.333000000
H     3.777000000    -6.247000000    -0.457000000
C     2.157000000    -5.536000000     0.742000000
O     1.310000000    -6.513000000     0.241000000
C     0.033000000    -6.751000000     0.689000000
C    -0.964000000    -6.252000000    -0.135000000
H    -0.708000000    -5.514000000    -0.891000000
C    -0.275000000    -7.499000000     1.741000000
H     0.568000000    -7.757000000     2.377000000
C    -1.573000000    -8.020000000     1.933000000
H    -1.793000000    -8.659000000     2.784000000
C    -2.622000000    -7.496000000     1.149000000
H    -3.674000000    -7.607000000     1.395000000
C    -2.275000000    -6.608000000     0.167000000
O    -3.277000000    -6.084000000    -0.619000000
C    -3.745000000    -4.782000000    -0.516000000
C    -4.717000000    -4.375000000    -1.472000000
H    -5.140000000    -5.075000000    -2.188000000
C    -5.255000000    -3.136000000    -1.419000000
O    -6.046000000    -2.646000000    -2.467000000
C    -6.211000000    -1.359000000    -2.897000000
C    -5.205000000    -0.801000000    -3.628000000
H    -4.341000000    -1.415000000    -3.867000000
C    -7.307000000    -0.544000000    -2.555000000
H    -8.133000000    -0.933000000    -1.966000000
C    -7.348000000     0.803000000    -3.010000000
H    -8.133000000     1.501000000    -2.728000000
C    -6.247000000     1.389000000    -3.626000000
H    -6.341000000     2.443000000    -3.875000000
C    -5.207000000     0.524000000    -3.984000000
O    -4.190000000     0.959000000    -4.810000000
C    -3.271000000     1.970000000    -4.493000000
C    -2.617000000     2.715000000    -5.485000000
H    -2.686000000     2.322000000    -6.496000000
C    -1.708000000     3.669000000    -5.170000000
O    -0.950000000     4.170000000    -6.183000000
C     0.377000000     4.397000000    -5.905000000
C     1.257000000     3.311000000    -5.743000000
H     0.954000000     2.300000000    -6.004000000
C     0.773000000     5.702000000    -5.498000000
H     0.225000000     6.584000000    -5.818000000
C     1.924000000     5.888000000    -4.716000000
H     2.096000000     6.841000000    -4.222000000
C     2.771000000     4.816000000    -4.486000000
H     3.704000000     4.897000000    -3.936000000
C     2.461000000     3.553000000    -5.006000000
O     3.379000000     2.527000000    -4.732000000
C     3.984000000     2.149000000    -3.577000000
C     4.788000000     0.954000000    -3.562000000
H     5.152000000     0.612000000    -4.527000000
C     5.137000000     0.348000000    -2.369000000
O     5.911000000    -0.754000000    -2.520000000
C     6.459000000    -1.474000000    -1.451000000
C     7.582000000    -1.056000000    -0.766000000
H     8.169000000    -0.237000000    -1.174000000
C     8.010000000    -1.648000000     0.427000000
H     8.941000000    -1.342000000     0.898000000
C     7.367000000    -2.805000000     0.867000000
H     7.577000000    -3.231000000     1.845000000
C     6.284000000    -3.331000000     0.222000000
C     5.776000000    -2.566000000    -0.910000000
H     4.877000000    -2.894000000    -1.426000000
C     1.323000000    -1.880000000    -1.068000000
H     2.260000000    -2.424000000    -1.162000000
C     1.356000000    -0.779000000    -0.175000000
H     2.297000000    -0.437000000     0.248000000
C     0.263000000     0.021000000     0.002000000
H     0.265000000     0.917000000     0.553000000
C    -0.885000000    -0.304000000    -0.649000000
H    -1.713000000     0.401000000    -0.613000000
C    -0.990000000    -1.407000000    -1.459000000
H    -1.887000000    -1.741000000    -1.974000000
C     0.113000000    -2.246000000    -1.713000000
C     0.012000000    -3.478000000    -2.563000000
O    -1.081000000    -3.834000000    -2.917000000
O     1.016000000    -4.072000000    -3.078000000
O    -0.052000000    -4.787000000    -5.702000000
H     0.834000000    -4.852000000    -6.058000000
H     0.063000000    -4.372000000    -4.847000000
O     5.072000000    -6.466000000    -5.432000000
H     4.922000000    -7.317000000    -5.021000000
H     4.742000000    -5.831000000    -4.796000000
O    -2.319000000    -6.571000000    -3.380000000
H    -3.252000000    -6.391000000    -3.265000000
H    -1.884000000    -5.768000000    -3.095000000
O     2.500000000    -6.248000000    -3.556000000
H     1.999000000    -5.461000000    -3.344000000
H     2.041000000    -6.955000000    -3.102000000
O    -3.323000000    -4.010000000    -4.404000000
H    -2.833000000    -3.732000000    -5.178000000
H    -2.715000000    -3.882000000    -3.677000000
O     1.149000000    -1.953000000    -7.376000000
H     1.347000000    -2.711000000    -7.926000000
H     1.091000000    -1.220000000    -7.989000000
O     2.325000000    -5.408000000    -7.695000000
H     2.515000000    -4.573000000    -8.122000000
H     1.762000000    -5.871000000    -8.315000000
O     2.706000000    -1.198000000    -5.264000000
H     2.220000000    -1.473000000    -6.042000000
H     2.053000000    -0.767000000    -4.714000000
O    -1.104000000    -7.990000000    -5.673000000
H    -0.182000000    -7.832000000    -5.878000000
H    -1.378000000    -7.214000000    -5.185000000
O     4.879000000    -5.376000000    -2.494000000
H     4.756000000    -4.455000000    -2.721000000
H     4.109000000    -5.817000000    -2.855000000
O     3.615000000    -3.250000000    -3.807000000
H     2.762000000    -3.551000000    -3.495000000
H     3.413000000    -2.525000000    -4.398000000
O     1.251000000    -8.205000000    -2.122000000
H     1.595000000    -9.072000000    -1.910000000
H     1.404000000    -7.686000000    -1.332000000
O    -1.635000000    -8.938000000    -2.079000000
H    -0.772000000    -8.631000000    -1.801000000
H    -1.902000000    -8.318000000    -2.758000000
O    -2.348000000    -4.754000000    -7.290000000
H    -1.579000000    -4.738000000    -6.720000000
H    -2.612000000    -5.674000000    -7.310000000
O    -1.321000000    -1.732000000    -6.128000000
H    -0.414000000    -1.573000000    -6.389000000
H    -1.252000000    -2.227000000    -5.312000000
O     1.558000000    -7.558000000    -5.755000000
H     1.992000000    -7.019000000    -5.093000000
H     2.041000000    -7.381000000    -6.562000000
O    -5.693000000    -4.542000000    -5.523000000
H    -5.405000000    -5.178000000    -6.178000000
H    -4.913000000    -4.020000000    -5.336000000
O     0.906000000     0.055000000    -3.608000000
H     1.577000000     0.159000000    -2.934000000
H     0.146000000     0.524000000    -3.264000000
O     6.694000000    -2.825000000    -4.692000000
H     5.949000000    -2.955000000    -4.105000000
H     6.330000000    -2.351000000    -5.440000000
