215
-1450.87227
C    -4.452000000    -2.044000000    -1.971000000
H    -4.782000000    -1.023000000    -2.140000000
C    -3.932000000    -2.396000000    -0.711000000
C    -3.310000000    -3.601000000    -0.622000000
H    -2.833000000    -3.845000000     0.325000000
C    -3.967000000    -1.409000000     0.464000000
O    -5.093000000    -0.435000000     0.263000000
H    -3.008000000    -0.872000000     0.514000000
O    -4.109000000    -1.939000000     1.796000000
C    -3.230000000    -1.554000000     2.771000000
C    -2.213000000    -2.450000000     3.134000000
H    -2.037000000    -3.383000000     2.605000000
C    -1.229000000    -2.007000000     3.976000000
O    -0.168000000    -2.754000000     4.186000000
C    -1.294000000    -0.691000000     4.557000000
C    -0.271000000    -0.172000000     5.501000000
H    -0.740000000     0.381000000     6.318000000
C     0.819000000     0.576000000     4.820000000
C     0.744000000     1.952000000     4.638000000
H    -0.036000000     2.597000000     5.034000000
H     0.023000000    -1.068000000     6.050000000
C    -2.441000000     0.077000000     4.310000000
H    -2.484000000     1.048000000     4.796000000
C    -3.342000000    -0.297000000     3.296000000
C    -4.516000000     0.655000000     3.120000000
H    -4.617000000     1.383000000     3.927000000
H    -5.439000000     0.085000000     3.240000000
C    -4.370000000     1.400000000     1.763000000
C    -3.771000000     2.642000000     1.845000000
H    -3.423000000     3.078000000     2.778000000
C    -4.708000000     0.868000000     0.438000000
C    -4.490000000     1.689000000    -0.687000000
H    -4.758000000     1.277000000    -1.657000000
C    -3.840000000     2.900000000    -0.560000000
O    -3.329000000     3.506000000    -1.692000000
C    -1.882000000     3.317000000    -1.829000000
C    -1.494000000     2.873000000    -3.243000000
C    -0.142000000     2.816000000    -3.648000000
H     0.659000000     3.117000000    -2.977000000
C    -2.477000000     2.319000000    -4.134000000
H    -3.438000000     2.084000000    -3.683000000
O    -1.106000000     4.510000000    -1.539000000
H    -1.693000000     2.496000000    -1.122000000
C    -3.516000000     3.369000000     0.690000000
C    -2.734000000     4.701000000     0.879000000
H    -3.096000000     5.295000000     1.721000000
H    -2.872000000     5.400000000     0.051000000
C    -1.198000000     4.475000000     0.866000000
C    -0.611000000     4.368000000     2.134000000
H    -1.278000000     4.430000000     2.990000000
C    -0.484000000     4.481000000    -0.327000000
C     0.893000000     4.385000000    -0.219000000
H     1.368000000     4.377000000    -1.196000000
C     1.523000000     4.255000000     1.057000000
O     2.913000000     4.125000000     1.140000000
C     3.343000000     2.745000000     1.205000000
C     4.473000000     2.370000000     0.162000000
C     4.813000000     3.175000000    -0.945000000
H     4.363000000     4.161000000    -1.026000000
C     5.012000000     1.071000000     0.274000000
H     4.781000000     0.499000000     1.168000000
O     3.708000000     2.426000000     2.573000000
H     2.443000000     2.170000000     0.940000000
C     0.784000000     4.205000000     2.264000000
C     1.463000000     4.072000000     3.623000000
H     0.880000000     4.666000000     4.330000000
H     2.412000000     4.588000000     3.461000000
C     1.646000000     2.586000000     3.814000000
C     2.696000000     1.826000000     3.315000000
C     2.768000000     0.441000000     3.435000000
H     3.496000000    -0.103000000     2.839000000
C     1.817000000    -0.205000000     4.198000000
O     1.919000000    -1.576000000     4.298000000
C     1.029000000    -2.413000000     3.437000000
H     0.668000000    -1.754000000     2.633000000
C     1.779000000    -3.582000000     2.780000000
C     1.060000000    -4.689000000     2.438000000
H     0.012000000    -4.770000000     2.715000000
C     3.133000000    -3.538000000     2.581000000
H     3.705000000    -2.658000000     2.865000000
C     3.803000000    -4.631000000     2.006000000
O     5.175000000    -4.662000000     1.812000000
C     3.060000000    -5.793000000     1.653000000
H     3.622000000    -6.604000000     1.198000000
C     1.727000000    -5.737000000     1.819000000
O     1.077000000    -6.905000000     1.510000000
C    -0.249000000    -6.832000000     1.244000000
C    -0.740000000    -6.186000000     0.113000000
H    -0.093000000    -5.745000000    -0.641000000
C    -1.196000000    -7.338000000     2.169000000
H    -0.775000000    -7.664000000     3.117000000
C    -2.574000000    -7.239000000     1.977000000
H    -3.290000000    -7.614000000     2.704000000
C    -3.036000000    -6.684000000     0.745000000
H    -4.099000000    -6.647000000     0.524000000
C    -2.074000000    -6.136000000    -0.159000000
O    -2.513000000    -5.714000000    -1.390000000
C    -3.160000000    -4.511000000    -1.685000000
C    -3.807000000    -4.244000000    -2.835000000
H    -3.945000000    -4.890000000    -3.698000000
C    -4.456000000    -3.004000000    -3.037000000
O    -5.151000000    -2.724000000    -4.186000000
C    -5.153000000    -1.491000000    -4.824000000
C    -3.950000000    -0.781000000    -5.038000000
H    -3.020000000    -1.236000000    -4.705000000
C    -6.404000000    -0.950000000    -5.185000000
H    -7.345000000    -1.401000000    -4.883000000
C    -6.419000000     0.289000000    -5.748000000
H    -7.424000000     0.700000000    -5.807000000
C    -5.255000000     0.934000000    -6.171000000
H    -5.372000000     1.891000000    -6.673000000
C    -4.029000000     0.413000000    -5.718000000
O    -2.946000000     1.048000000    -6.156000000
C    -2.066000000     1.792000000    -5.353000000
C    -0.745000000     1.826000000    -5.739000000
H    -0.466000000     1.263000000    -6.627000000
C     0.274000000     2.313000000    -4.879000000
O     1.547000000     2.272000000    -5.200000000
C     2.478000000     3.251000000    -4.961000000
C     3.644000000     2.842000000    -4.324000000
H     3.891000000     1.801000000    -4.132000000
C     2.313000000     4.637000000    -5.346000000
H     1.375000000     5.013000000    -5.748000000
C     3.242000000     5.538000000    -4.931000000
H     3.030000000     6.562000000    -5.227000000
C     4.405000000     5.139000000    -4.248000000
H     5.181000000     5.864000000    -4.018000000
C     4.580000000     3.810000000    -3.911000000
O     5.713000000     3.406000000    -3.198000000
C     5.600000000     2.681000000    -1.998000000
C     6.189000000     1.378000000    -1.862000000
H     6.954000000     0.969000000    -2.517000000
C     5.877000000     0.609000000    -0.698000000
O     6.436000000    -0.624000000    -0.678000000
C     6.497000000    -1.439000000     0.483000000
C     7.469000000    -1.100000000     1.489000000
H     7.926000000    -0.129000000     1.321000000
C     7.538000000    -1.828000000     2.696000000
H     8.090000000    -1.382000000     3.520000000
C     6.758000000    -3.015000000     2.771000000
H     6.884000000    -3.572000000     3.695000000
C     5.916000000    -3.451000000     1.689000000
C     5.688000000    -2.612000000     0.574000000
H     4.936000000    -2.873000000    -0.166000000
C     1.380000000    -2.325000000    -0.889000000
H     2.095000000    -3.119000000    -0.693000000
C     1.375000000    -1.115000000    -0.166000000
H     2.136000000    -0.837000000     0.559000000
C     0.313000000    -0.316000000    -0.362000000
H     0.258000000     0.620000000     0.182000000
C    -0.696000000    -0.594000000    -1.283000000
H    -1.498000000     0.129000000    -1.408000000
C    -0.658000000    -1.725000000    -2.055000000
H    -1.376000000    -1.846000000    -2.862000000
C     0.437000000    -2.599000000    -1.895000000
C     0.513000000    -3.891000000    -2.732000000
O    -0.086000000    -3.962000000    -3.808000000
O     1.384000000    -4.711000000    -2.566000000
O     1.712000000    -8.096000000    -5.351000000
H     1.611000000    -7.740000000    -4.468000000
H     2.649000000    -8.274000000    -5.432000000
O    -0.663000000    -4.362000000    -8.052000000
H    -0.331000000    -4.430000000    -8.947000000
H     0.068000000    -4.646000000    -7.503000000
O    -2.624000000    -6.324000000    -6.715000000
H    -2.210000000    -5.609000000    -7.198000000
H    -2.120000000    -6.388000000    -5.904000000
O    -1.069000000    -6.415000000    -4.406000000
H    -0.848000000    -5.492000000    -4.285000000
H    -0.523000000    -6.878000000    -3.771000000
O     1.761000000    -7.243000000    -2.863000000
H     1.500000000    -6.399000000    -2.493000000
H     2.507000000    -7.518000000    -2.330000000
O    -0.853000000    -1.861000000    -5.361000000
H    -0.134000000    -1.563000000    -5.918000000
H    -0.450000000    -2.497000000    -4.770000000
O     1.515000000    -4.485000000    -5.980000000
H     1.889000000    -3.605000000    -5.947000000
H     0.840000000    -4.484000000    -5.301000000
O     3.930000000    -1.723000000    -2.212000000
H     4.425000000    -1.210000000    -2.850000000
H     3.045000000    -1.360000000    -2.247000000
O    -0.372000000    -9.910000000    -5.478000000
H     0.317000000    -9.247000000    -5.513000000
H     0.098000000   -10.743000000    -5.429000000
O     3.714000000    -6.077000000    -6.303000000
H     4.048000000    -5.750000000    -5.467000000
H     2.931000000    -5.552000000    -6.469000000
O     5.534000000    -6.916000000    -1.158000000
H     4.799000000    -6.319000000    -1.019000000
H     5.180000000    -7.605000000    -1.720000000
O     4.001000000    -4.468000000    -2.247000000
H     3.080000000    -4.722000000    -2.187000000
H     3.985000000    -3.511000000    -2.258000000
O    -3.098000000    -3.317000000    -6.934000000
H    -2.273000000    -3.581000000    -7.341000000
H    -2.845000000    -2.662000000    -6.283000000
O     0.213000000    -9.955000000    -2.568000000
H     0.873000000    -9.270000000    -2.467000000
H     0.537000000   -10.496000000    -3.288000000
O     1.337000000    -7.326000000    -8.218000000
H     1.348000000    -6.385000000    -8.392000000
H     1.425000000    -7.395000000    -7.268000000
O     1.974000000    -0.959000000    -5.787000000
H     1.878000000    -1.001000000    -4.836000000
H     2.692000000    -0.341000000    -5.928000000
O     1.821000000    -0.126000000    -3.004000000
H     1.611000000     0.788000000    -3.194000000
H     1.402000000    -0.298000000    -2.160000000
O    -4.107000000    -7.346000000    -3.002000000
H    -3.635000000    -6.708000000    -2.467000000
H    -3.425000000    -7.927000000    -3.339000000
O     5.564000000    -5.375000000    -4.239000000
H     4.924000000    -5.061000000    -3.600000000
H     5.944000000    -6.155000000    -3.835000000
