215
-1477.48468
C    -4.811000000    -1.693000000    -1.726000000
H    -5.178000000    -0.673000000    -1.637000000
C    -4.348000000    -2.289000000    -0.587000000
C    -3.881000000    -3.625000000    -0.688000000
H    -3.437000000    -4.077000000     0.195000000
C    -4.112000000    -1.511000000     0.663000000
O    -4.938000000    -0.311000000     0.705000000
H    -3.076000000    -1.175000000     0.813000000
O    -4.400000000    -2.241000000     1.909000000
C    -3.483000000    -1.973000000     2.912000000
C    -2.294000000    -2.767000000     2.903000000
H    -2.192000000    -3.701000000     2.356000000
C    -1.214000000    -2.436000000     3.707000000
O    -0.112000000    -3.197000000     3.547000000
C    -1.257000000    -1.399000000     4.686000000
C    -0.097000000    -1.018000000     5.511000000
H    -0.427000000    -0.407000000     6.354000000
C     1.024000000    -0.266000000     4.731000000
C     1.095000000     1.142000000     4.767000000
H     0.373000000     1.700000000     5.358000000
H     0.325000000    -1.918000000     5.963000000
C    -2.363000000    -0.602000000     4.656000000
H    -2.329000000     0.323000000     5.226000000
C    -3.384000000    -0.782000000     3.682000000
C    -4.509000000     0.254000000     3.551000000
H    -4.736000000     0.803000000     4.467000000
H    -5.514000000    -0.155000000     3.435000000
C    -4.183000000     1.194000000     2.369000000
C    -3.616000000     2.424000000     2.756000000
H    -3.508000000     2.701000000     3.801000000
C    -4.392000000     0.847000000     1.062000000
C    -4.161000000     1.794000000     0.128000000
H    -4.421000000     1.670000000    -0.921000000
C    -3.602000000     3.048000000     0.490000000
O    -3.279000000     3.857000000    -0.580000000
C    -1.820000000     3.847000000    -0.970000000
C    -1.547000000     3.652000000    -2.478000000
C    -0.332000000     4.146000000    -3.050000000
H     0.352000000     4.831000000    -2.556000000
C    -2.431000000     2.870000000    -3.267000000
H    -3.290000000     2.358000000    -2.840000000
O    -1.250000000     5.042000000    -0.453000000
H    -1.294000000     3.053000000    -0.419000000
C    -3.225000000     3.363000000     1.791000000
C    -2.428000000     4.659000000     2.142000000
H    -2.655000000     4.794000000     3.202000000
H    -2.841000000     5.465000000     1.532000000
C    -0.957000000     4.577000000     1.931000000
C    -0.168000000     4.125000000     2.980000000
H    -0.669000000     4.099000000     3.944000000
C    -0.416000000     4.777000000     0.657000000
C     0.924000000     4.438000000     0.444000000
H     1.391000000     4.641000000    -0.516000000
C     1.691000000     4.042000000     1.528000000
O     2.985000000     3.683000000     1.145000000
C     3.301000000     2.225000000     1.142000000
C     4.333000000     1.953000000     0.088000000
C     4.226000000     2.686000000    -1.094000000
H     3.447000000     3.418000000    -1.294000000
C     5.137000000     0.849000000     0.221000000
H     5.078000000     0.217000000     1.104000000
O     3.860000000     1.842000000     2.460000000
H     2.366000000     1.659000000     1.023000000
C     1.162000000     3.823000000     2.799000000
C     2.004000000     3.413000000     3.977000000
H     1.584000000     3.837000000     4.891000000
H     3.040000000     3.717000000     3.808000000
C     2.128000000     1.878000000     4.101000000
C     3.002000000     1.174000000     3.226000000
C     2.917000000    -0.216000000     3.223000000
H     3.736000000    -0.786000000     2.791000000
C     1.990000000    -0.912000000     3.961000000
O     2.030000000    -2.222000000     3.899000000
C     1.092000000    -2.769000000     2.964000000
H     0.891000000    -1.999000000     2.206000000
C     1.711000000    -3.921000000     2.108000000
C     0.966000000    -4.873000000     1.458000000
H    -0.085000000    -4.738000000     1.701000000
C     3.071000000    -3.848000000     1.806000000
H     3.649000000    -2.992000000     2.146000000
C     3.642000000    -4.780000000     0.944000000
O     4.953000000    -4.701000000     0.513000000
C     2.852000000    -5.782000000     0.417000000
H     3.261000000    -6.489000000    -0.301000000
C     1.480000000    -5.834000000     0.652000000
O     0.756000000    -6.785000000    -0.038000000
C    -0.585000000    -6.841000000    -0.011000000
C    -1.330000000    -6.136000000    -0.966000000
H    -0.773000000    -5.531000000    -1.678000000
C    -1.336000000    -7.596000000     0.900000000
H    -0.847000000    -8.210000000     1.652000000
C    -2.727000000    -7.718000000     0.767000000
H    -3.306000000    -8.237000000     1.528000000
C    -3.428000000    -7.059000000    -0.252000000
H    -4.510000000    -7.138000000    -0.325000000
C    -2.739000000    -6.244000000    -1.118000000
O    -3.371000000    -5.521000000    -2.085000000
C    -3.986000000    -4.307000000    -1.856000000
C    -4.645000000    -3.716000000    -2.938000000
H    -4.706000000    -4.282000000    -3.864000000
C    -4.932000000    -2.396000000    -2.939000000
O    -5.533000000    -1.829000000    -4.094000000
C    -5.408000000    -0.495000000    -4.418000000
C    -4.179000000     0.135000000    -4.582000000
H    -3.299000000    -0.396000000    -4.229000000
C    -6.594000000     0.135000000    -4.921000000
H    -7.599000000    -0.269000000    -4.831000000
C    -6.468000000     1.415000000    -5.522000000
H    -7.304000000     1.896000000    -6.023000000
C    -5.272000000     2.094000000    -5.538000000
H    -5.182000000     3.007000000    -6.121000000
C    -4.120000000     1.434000000    -5.096000000
O    -2.933000000     2.021000000    -5.414000000
C    -2.086000000     2.745000000    -4.633000000
C    -0.904000000     3.207000000    -5.183000000
H    -0.588000000     3.002000000    -6.203000000
C    -0.028000000     3.864000000    -4.369000000
O     0.975000000     4.550000000    -5.072000000
C     2.298000000     4.789000000    -4.600000000
C     2.951000000     3.744000000    -4.010000000
H     2.510000000     2.772000000    -3.806000000
C     2.975000000     5.951000000    -4.984000000
H     2.376000000     6.696000000    -5.502000000
C     4.318000000     6.070000000    -4.839000000
H     4.828000000     6.995000000    -5.097000000
C     5.056000000     4.982000000    -4.328000000
H     6.135000000     5.060000000    -4.227000000
C     4.356000000     3.864000000    -3.936000000
O     5.024000000     2.732000000    -3.482000000
C     4.998000000     2.248000000    -2.208000000
C     5.921000000     1.257000000    -1.994000000
H     6.593000000     0.884000000    -2.763000000
C     6.027000000     0.496000000    -0.798000000
O     6.967000000    -0.505000000    -0.785000000
C     6.918000000    -1.639000000    -0.012000000
C     7.985000000    -1.954000000     0.777000000
H     8.756000000    -1.187000000     0.765000000
C     8.096000000    -3.178000000     1.416000000
H     9.008000000    -3.402000000     1.963000000
C     6.966000000    -4.027000000     1.471000000
H     7.038000000    -5.056000000     1.815000000
C     5.805000000    -3.645000000     0.808000000
C     5.758000000    -2.475000000     0.047000000
H     4.861000000    -2.172000000    -0.487000000
C     1.304000000    -1.827000000    -0.823000000
H     2.257000000    -2.318000000    -0.643000000
C     0.857000000    -0.752000000    -0.048000000
H     1.565000000    -0.530000000     0.748000000
C    -0.405000000    -0.221000000    -0.312000000
H    -0.896000000     0.540000000     0.362000000
C    -1.219000000    -0.717000000    -1.364000000
H    -2.231000000    -0.331000000    -1.454000000
C    -0.750000000    -1.754000000    -2.111000000
H    -1.446000000    -2.108000000    -2.867000000
C     0.560000000    -2.244000000    -1.957000000
C     1.097000000    -3.300000000    -2.981000000
O     0.590000000    -3.496000000    -4.056000000
O     2.102000000    -3.980000000    -2.688000000
O     2.377000000    -2.939000000    -5.867000000
H     1.624000000    -3.029000000    -5.283000000
H     3.135000000    -2.936000000    -5.282000000
O    -0.978000000    -5.724000000    -4.622000000
H    -0.345000000    -5.183000000    -4.150000000
H    -1.069000000    -6.510000000    -4.084000000
O    -0.346000000    -8.224000000    -3.091000000
H     0.171000000    -7.539000000    -3.515000000
H     0.303000000    -8.844000000    -2.760000000
O     6.888000000    -5.490000000    -3.575000000
H     6.038000000    -5.394000000    -3.145000000
H     7.273000000    -4.614000000    -3.542000000
O     4.518000000    -4.801000000    -2.433000000
H     4.573000000    -5.130000000    -1.536000000
H     3.641000000    -4.424000000    -2.497000000
O    -1.034000000    -3.183000000    -8.744000000
H    -0.295000000    -3.664000000    -8.371000000
H    -1.807000000    -3.590000000    -8.353000000
O    -1.014000000    -2.013000000    -5.511000000
H    -0.710000000    -1.106000000    -5.479000000
H    -0.351000000    -2.505000000    -5.026000000
O     1.756000000    -6.447000000    -3.344000000
H     2.016000000    -6.363000000    -4.261000000
H     1.789000000    -5.554000000    -3.003000000
O     3.730000000    -0.895000000    -2.867000000
H     3.807000000    -0.595000000    -1.961000000
H     2.881000000    -0.562000000    -3.158000000
O     1.943000000    -4.720000000    -7.944000000
H     2.136000000    -4.112000000    -7.230000000
H     2.787000000    -4.863000000    -8.373000000
O     4.631000000    -2.923000000    -4.418000000
H     4.669000000    -3.652000000    -3.798000000
H     4.285000000    -2.192000000    -3.906000000
O     0.227000000    -6.545000000    -6.868000000
H    -0.126000000    -6.052000000    -6.128000000
H     0.674000000    -5.889000000    -7.403000000
O     2.724000000    -0.191000000    -6.439000000
H     2.548000000    -1.114000000    -6.253000000
H     3.633000000    -0.062000000    -6.169000000
O    -2.916000000    -4.021000000    -6.081000000
H    -2.448000000    -4.630000000    -5.509000000
H    -2.364000000    -3.240000000    -6.103000000
O     3.142000000    -8.621000000    -2.565000000
H     2.772000000    -7.767000000    -2.788000000
H     3.678000000    -8.856000000    -3.323000000
O     0.137000000     0.347000000    -6.044000000
H     1.073000000     0.318000000    -6.245000000
H    -0.251000000     0.822000000    -6.779000000
O     1.298000000     0.259000000    -3.212000000
H     0.827000000     0.176000000    -4.041000000
H     0.692000000    -0.086000000    -2.556000000
O     4.502000000    -6.474000000    -5.737000000
H     5.227000000    -7.099000000    -5.749000000
H     4.588000000    -6.024000000    -4.897000000
O     6.107000000    -2.714000000    -6.743000000
H     5.628000000    -2.558000000    -5.929000000
H     5.602000000    -2.250000000    -7.411000000
