215
-1426.66127
C    -3.744000000    -2.381000000    -1.296000000
H    -4.087000000    -1.357000000    -1.415000000
C    -3.520000000    -2.886000000     0.032000000
C    -3.168000000    -4.212000000     0.158000000
H    -2.970000000    -4.637000000     1.139000000
C    -3.401000000    -1.898000000     1.263000000
O    -4.505000000    -0.901000000     1.271000000
H    -2.434000000    -1.382000000     1.165000000
O    -3.505000000    -2.493000000     2.541000000
C    -2.552000000    -2.123000000     3.464000000
C    -1.398000000    -2.908000000     3.644000000
H    -1.299000000    -3.915000000     3.246000000
C    -0.293000000    -2.283000000     4.180000000
O     0.965000000    -2.831000000     4.008000000
C    -0.418000000    -1.001000000     4.775000000
C     0.758000000    -0.423000000     5.488000000
H     0.361000000     0.232000000     6.267000000
C     1.599000000     0.416000000     4.502000000
C     1.460000000     1.853000000     4.487000000
H     0.660000000     2.295000000     5.075000000
H     1.322000000    -1.211000000     5.992000000
C    -1.616000000    -0.338000000     4.745000000
H    -1.684000000     0.694000000     5.082000000
C    -2.715000000    -0.856000000     4.073000000
C    -3.880000000     0.011000000     3.859000000
H    -4.136000000     0.605000000     4.739000000
H    -4.712000000    -0.694000000     3.817000000
C    -3.793000000     0.881000000     2.668000000
C    -3.317000000     2.112000000     2.817000000
H    -3.002000000     2.472000000     3.793000000
C    -4.101000000     0.396000000     1.405000000
C    -4.214000000     1.232000000     0.356000000
H    -4.462000000     0.834000000    -0.624000000
C    -3.808000000     2.535000000     0.485000000
O    -3.633000000     3.292000000    -0.648000000
C    -2.308000000     3.370000000    -1.260000000
C    -2.383000000     3.350000000    -2.823000000
C    -1.302000000     3.625000000    -3.575000000
H    -0.468000000     4.159000000    -3.126000000
C    -3.422000000     2.573000000    -3.415000000
H    -4.245000000     2.205000000    -2.808000000
O    -1.668000000     4.529000000    -0.832000000
H    -1.674000000     2.539000000    -0.918000000
C    -3.299000000     2.938000000     1.714000000
C    -2.828000000     4.389000000     1.903000000
H    -3.043000000     4.700000000     2.927000000
H    -3.383000000     5.086000000     1.270000000
C    -1.348000000     4.589000000     1.639000000
C    -0.348000000     4.460000000     2.659000000
H    -0.697000000     4.322000000     3.679000000
C    -0.869000000     4.638000000     0.256000000
C     0.462000000     4.680000000    -0.008000000
H     0.835000000     4.742000000    -1.027000000
C     1.418000000     4.613000000     1.010000000
O     2.756000000     4.360000000     0.682000000
C     3.253000000     3.057000000     0.621000000
C     4.075000000     2.747000000    -0.621000000
C     3.878000000     3.373000000    -1.849000000
H     3.158000000     4.162000000    -2.050000000
C     5.011000000     1.739000000    -0.553000000
H     5.176000000     1.203000000     0.378000000
O     3.957000000     2.713000000     1.862000000
H     2.412000000     2.355000000     0.536000000
C     1.038000000     4.445000000     2.358000000
C     2.004000000     4.166000000     3.514000000
H     1.544000000     4.475000000     4.456000000
H     2.977000000     4.649000000     3.410000000
C     2.258000000     2.650000000     3.648000000
C     3.256000000     2.083000000     2.881000000
C     3.441000000     0.703000000     2.984000000
H     4.182000000     0.155000000     2.408000000
C     2.636000000    -0.123000000     3.719000000
O     2.890000000    -1.466000000     3.648000000
C     1.879000000    -2.327000000     3.007000000
H     1.242000000    -1.737000000     2.331000000
C     2.425000000    -3.483000000     2.117000000
C     1.736000000    -4.696000000     1.976000000
H     0.869000000    -5.031000000     2.538000000
C     3.316000000    -3.159000000     1.101000000
H     3.777000000    -2.176000000     1.132000000
C     3.726000000    -4.056000000     0.090000000
O     4.536000000    -3.676000000    -0.905000000
C     3.121000000    -5.323000000     0.080000000
H     3.417000000    -6.093000000    -0.629000000
C     2.069000000    -5.621000000     0.960000000
O     1.517000000    -6.824000000     0.957000000
C     0.188000000    -7.214000000     0.978000000
C    -0.681000000    -6.673000000     0.063000000
H    -0.352000000    -5.962000000    -0.690000000
C    -0.316000000    -8.114000000     1.926000000
H     0.448000000    -8.673000000     2.461000000
C    -1.672000000    -8.315000000     2.092000000
H    -2.069000000    -8.999000000     2.838000000
C    -2.480000000    -7.711000000     1.209000000
H    -3.555000000    -7.871000000     1.224000000
C    -2.056000000    -6.957000000     0.182000000
O    -2.907000000    -6.354000000    -0.654000000
C    -3.148000000    -5.051000000    -0.942000000
C    -3.556000000    -4.534000000    -2.181000000
H    -3.631000000    -5.205000000    -3.033000000
C    -3.764000000    -3.197000000    -2.422000000
O    -4.072000000    -2.683000000    -3.687000000
C    -4.825000000    -1.569000000    -3.904000000
C    -4.465000000    -0.583000000    -4.827000000
H    -3.453000000    -0.536000000    -5.224000000
C    -6.110000000    -1.482000000    -3.358000000
H    -6.456000000    -2.245000000    -2.665000000
C    -6.989000000    -0.420000000    -3.586000000
H    -7.971000000    -0.346000000    -3.126000000
C    -6.428000000     0.687000000    -4.245000000
H    -7.055000000     1.562000000    -4.397000000
C    -5.204000000     0.605000000    -4.898000000
O    -4.645000000     1.769000000    -5.313000000
C    -3.534000000     2.295000000    -4.760000000
C    -2.412000000     2.675000000    -5.549000000
H    -2.427000000     2.415000000    -6.604000000
C    -1.349000000     3.348000000    -4.963000000
O    -0.175000000     3.520000000    -5.687000000
C     0.928000000     4.192000000    -5.111000000
C     2.168000000     3.604000000    -4.904000000
H     2.271000000     2.522000000    -4.909000000
C     0.837000000     5.589000000    -4.956000000
H    -0.037000000     6.170000000    -5.243000000
C     1.965000000     6.359000000    -4.578000000
H     1.864000000     7.434000000    -4.451000000
C     3.186000000     5.724000000    -4.388000000
H     4.054000000     6.335000000    -4.156000000
C     3.286000000     4.363000000    -4.485000000
O     4.433000000     3.695000000    -4.125000000
C     4.680000000     3.040000000    -2.964000000
C     5.671000000     2.075000000    -2.863000000
H     6.348000000     1.794000000    -3.665000000
C     5.902000000     1.452000000    -1.635000000
O     6.921000000     0.542000000    -1.530000000
C     6.781000000    -0.744000000    -0.996000000
C     7.759000000    -1.203000000    -0.168000000
H     8.655000000    -0.600000000    -0.035000000
C     7.729000000    -2.455000000     0.438000000
H     8.518000000    -2.872000000     1.060000000
C     6.655000000    -3.263000000     0.079000000
H     6.649000000    -4.223000000     0.589000000
C     5.636000000    -2.839000000    -0.734000000
C     5.694000000    -1.565000000    -1.257000000
H     4.878000000    -1.171000000    -1.857000000
C     0.380000000    -2.659000000    -1.617000000
H     0.901000000    -3.574000000    -1.351000000
C     0.329000000    -1.566000000    -0.701000000
H     0.817000000    -1.731000000     0.256000000
C    -0.302000000    -0.355000000    -1.048000000
H    -0.369000000     0.468000000    -0.286000000
C    -0.895000000    -0.268000000    -2.288000000
H    -1.528000000     0.559000000    -2.600000000
C    -0.890000000    -1.295000000    -3.220000000
H    -1.438000000    -1.290000000    -4.159000000
C    -0.180000000    -2.488000000    -2.919000000
C    -0.073000000    -3.614000000    -3.882000000
O    -0.593000000    -3.425000000    -4.972000000
O     0.410000000    -4.691000000    -3.603000000
O     0.923000000    -1.848000000    -6.387000000
H     0.329000000    -2.446000000    -5.933000000
H     1.752000000    -2.325000000    -6.435000000
O    -2.615000000    -3.960000000    -6.690000000
H    -1.918000000    -3.576000000    -6.158000000
H    -2.914000000    -4.716000000    -6.185000000
O     4.363000000    -7.327000000    -3.713000000
H     4.294000000    -6.396000000    -3.924000000
H     4.903000000    -7.354000000    -2.923000000
O     3.214000000    -4.839000000    -3.301000000
H     3.244000000    -4.714000000    -2.352000000
H     2.290000000    -4.740000000    -3.527000000
O    -2.017000000    -0.976000000    -7.227000000
H    -2.773000000    -1.521000000    -7.444000000
H    -1.272000000    -1.575000000    -7.263000000
O    -1.421000000    -6.663000000    -4.097000000
H    -1.981000000    -6.410000000    -4.831000000
H    -0.830000000    -5.919000000    -3.980000000
O     3.623000000    -0.399000000    -5.633000000
H     4.087000000    -1.078000000    -5.143000000
H     3.229000000     0.155000000    -4.959000000
O    -0.277000000    -8.992000000    -3.553000000
H    -0.494000000    -8.095000000    -3.808000000
H    -1.095000000    -9.345000000    -3.203000000
O     2.508000000    -7.660000000    -6.572000000
H     2.153000000    -6.776000000    -6.472000000
H     2.000000000    -8.192000000    -5.960000000
O    -0.222000000    -2.646000000    -9.285000000
H     0.147000000    -2.257000000    -8.492000000
H     0.531000000    -3.028000000    -9.736000000
O     4.386000000    -2.566000000    -4.266000000
H     3.979000000    -3.337000000    -3.870000000
H     5.305000000    -2.811000000    -4.375000000
O    -4.056000000    -6.264000000    -5.606000000
H    -4.796000000    -5.731000000    -5.895000000
H    -4.395000000    -6.764000000    -4.864000000
O    -0.848000000    -6.290000000    -7.718000000
H    -0.226000000    -6.955000000    -7.423000000
H    -0.460000000    -5.460000000    -7.441000000
O     1.808000000    -7.600000000    -2.107000000
H     1.009000000    -7.960000000    -2.492000000
H     2.192000000    -7.069000000    -2.804000000
O    -3.120000000    -7.608000000    -7.705000000
H    -3.403000000    -7.049000000    -6.981000000
H    -2.281000000    -7.238000000    -7.980000000
O     0.665000000     0.797000000    -6.732000000
H     0.854000000    -0.128000000    -6.571000000
H    -0.257000000     0.897000000    -6.493000000
O     1.986000000     0.557000000    -3.210000000
H     1.109000000     0.861000000    -3.445000000
H     1.835000000    -0.124000000    -2.555000000
O     3.268000000    -3.087000000    -6.808000000
H     4.011000000    -2.767000000    -6.297000000
H     3.638000000    -3.290000000    -7.667000000
O     1.660000000    -5.274000000    -5.976000000
H     2.282000000    -4.554000000    -6.082000000
H     1.095000000    -4.998000000    -5.254000000
