215
-1452.68287
C    -5.034000000    -2.232000000    -0.580000000
H    -5.740000000    -1.406000000    -0.559000000
C    -4.088000000    -2.531000000     0.398000000
C    -3.324000000    -3.668000000     0.246000000
H    -2.484000000    -3.949000000     0.877000000
C    -3.804000000    -1.627000000     1.573000000
O    -4.839000000    -0.636000000     1.620000000
H    -2.809000000    -1.207000000     1.364000000
O    -3.456000000    -2.421000000     2.764000000
C    -2.521000000    -1.964000000     3.627000000
C    -1.358000000    -2.703000000     3.567000000
H    -1.327000000    -3.620000000     2.984000000
C    -0.206000000    -2.341000000     4.277000000
O     0.979000000    -3.120000000     4.058000000
C    -0.138000000    -1.056000000     4.815000000
C     1.063000000    -0.503000000     5.562000000
H     0.755000000     0.196000000     6.342000000
C     1.867000000     0.221000000     4.534000000
C     1.779000000     1.565000000     4.405000000
H     1.019000000     2.053000000     5.009000000
H     1.674000000    -1.278000000     6.029000000
C    -1.334000000    -0.295000000     4.741000000
H    -1.324000000     0.672000000     5.237000000
C    -2.522000000    -0.673000000     4.183000000
C    -3.721000000     0.312000000     4.162000000
H    -3.683000000     0.966000000     5.035000000
H    -4.665000000    -0.234000000     4.218000000
C    -3.821000000     1.172000000     2.884000000
C    -3.210000000     2.493000000     2.888000000
H    -2.791000000     2.938000000     3.787000000
C    -4.296000000     0.649000000     1.688000000
C    -4.229000000     1.382000000     0.487000000
H    -4.515000000     1.078000000    -0.517000000
C    -3.511000000     2.579000000     0.499000000
O    -3.422000000     3.229000000    -0.671000000
C    -2.132000000     3.408000000    -1.272000000
C    -2.204000000     3.348000000    -2.785000000
C    -1.386000000     4.066000000    -3.680000000
H    -0.626000000     4.745000000    -3.301000000
C    -2.993000000     2.332000000    -3.303000000
H    -3.650000000     1.798000000    -2.621000000
O    -1.580000000     4.642000000    -0.815000000
H    -1.449000000     2.648000000    -0.866000000
C    -3.126000000     3.177000000     1.678000000
C    -2.537000000     4.533000000     1.791000000
H    -2.773000000     4.925000000     2.782000000
H    -2.959000000     5.274000000     1.108000000
C    -1.065000000     4.528000000     1.514000000
C    -0.113000000     4.311000000     2.518000000
H    -0.464000000     4.387000000     3.544000000
C    -0.679000000     4.569000000     0.144000000
C     0.637000000     4.421000000    -0.135000000
H     0.950000000     4.388000000    -1.175000000
C     1.627000000     4.226000000     0.837000000
O     2.887000000     3.977000000     0.304000000
C     3.277000000     2.584000000     0.317000000
C     4.142000000     2.260000000    -0.910000000
C     3.821000000     2.801000000    -2.161000000
H     2.896000000     3.372000000    -2.132000000
C     5.164000000     1.314000000    -0.882000000
H     5.457000000     0.801000000     0.031000000
O     3.998000000     2.136000000     1.496000000
H     2.427000000     1.892000000     0.406000000
C     1.213000000     4.053000000     2.171000000
C     2.224000000     3.793000000     3.220000000
H     1.861000000     4.234000000     4.151000000
H     3.150000000     4.335000000     3.014000000
C     2.526000000     2.332000000     3.455000000
C     3.433000000     1.616000000     2.606000000
C     3.544000000     0.225000000     2.728000000
H     4.228000000    -0.275000000     2.046000000
C     2.697000000    -0.500000000     3.596000000
O     2.951000000    -1.929000000     3.611000000
C     1.893000000    -2.690000000     3.029000000
H     1.325000000    -2.088000000     2.304000000
C     2.488000000    -3.843000000     2.226000000
C     1.895000000    -5.078000000     2.145000000
H     1.029000000    -5.370000000     2.734000000
C     3.643000000    -3.653000000     1.417000000
H     4.065000000    -2.652000000     1.409000000
C     3.957000000    -4.527000000     0.381000000
O     4.911000000    -4.221000000    -0.525000000
C     3.263000000    -5.674000000     0.172000000
H     3.541000000    -6.369000000    -0.616000000
C     2.241000000    -5.914000000     1.071000000
O     1.578000000    -7.136000000     0.937000000
C     0.200000000    -7.118000000     0.840000000
C    -0.457000000    -6.370000000    -0.176000000
H     0.194000000    -5.975000000    -0.952000000
C    -0.575000000    -7.750000000     1.791000000
H    -0.211000000    -8.383000000     2.596000000
C    -1.938000000    -7.659000000     1.813000000
H    -2.455000000    -8.017000000     2.699000000
C    -2.603000000    -6.908000000     0.873000000
H    -3.689000000    -6.946000000     0.882000000
C    -1.863000000    -6.273000000    -0.145000000
O    -2.553000000    -5.510000000    -1.074000000
C    -3.478000000    -4.448000000    -0.828000000
C    -4.397000000    -4.138000000    -1.859000000
H    -4.414000000    -4.724000000    -2.774000000
C    -5.154000000    -2.986000000    -1.778000000
O    -6.005000000    -2.517000000    -2.739000000
C    -5.958000000    -1.244000000    -3.284000000
C    -4.800000000    -0.721000000    -3.783000000
H    -3.944000000    -1.389000000    -3.753000000
C    -7.117000000    -0.449000000    -3.381000000
H    -8.049000000    -0.752000000    -2.909000000
C    -7.088000000     0.796000000    -4.087000000
H    -8.058000000     1.264000000    -4.232000000
C    -5.896000000     1.291000000    -4.675000000
H    -5.893000000     2.184000000    -5.296000000
C    -4.725000000     0.490000000    -4.503000000
O    -3.533000000     0.842000000    -5.103000000
C    -2.887000000     1.969000000    -4.668000000
C    -2.132000000     2.687000000    -5.547000000
H    -2.109000000     2.555000000    -6.626000000
C    -1.329000000     3.774000000    -5.053000000
O    -0.479000000     4.409000000    -5.876000000
C     0.792000000     4.670000000    -5.507000000
C     1.680000000     3.589000000    -5.348000000
H     1.378000000     2.589000000    -5.648000000
C     1.280000000     5.958000000    -5.348000000
H     0.539000000     6.749000000    -5.424000000
C     2.487000000     6.117000000    -4.666000000
H     2.612000000     7.142000000    -4.325000000
C     3.365000000     5.051000000    -4.424000000
H     4.144000000     5.166000000    -3.676000000
C     2.935000000     3.718000000    -4.790000000
O     3.699000000     2.569000000    -4.543000000
C     4.356000000     2.328000000    -3.341000000
C     5.417000000     1.486000000    -3.326000000
H     5.783000000     1.025000000    -4.239000000
C     5.785000000     0.985000000    -2.041000000
O     6.710000000    -0.049000000    -1.967000000
C     6.728000000    -1.075000000    -1.068000000
C     7.559000000    -1.037000000     0.054000000
H     8.162000000    -0.148000000     0.220000000
C     7.574000000    -2.027000000     1.052000000
H     8.104000000    -1.898000000     1.993000000
C     6.654000000    -3.106000000     0.817000000
H     6.507000000    -3.788000000     1.650000000
C     5.848000000    -3.198000000    -0.308000000
C     5.855000000    -2.182000000    -1.271000000
H     5.340000000    -2.224000000    -2.228000000
C    -0.027000000    -2.930000000    -1.592000000
H     0.447000000    -3.891000000    -1.774000000
C     0.385000000    -2.265000000    -0.453000000
H     1.011000000    -2.784000000     0.268000000
C     0.014000000    -0.903000000    -0.319000000
H     0.339000000    -0.457000000     0.618000000
C    -0.807000000    -0.304000000    -1.206000000
H    -1.311000000     0.626000000    -0.960000000
C    -1.244000000    -1.078000000    -2.270000000
H    -2.055000000    -0.695000000    -2.885000000
C    -0.831000000    -2.396000000    -2.596000000
C    -1.160000000    -3.214000000    -3.837000000
O    -1.961000000    -2.720000000    -4.597000000
O    -0.675000000    -4.336000000    -3.972000000
O     1.277000000     0.023000000    -6.142000000
H     0.386000000    -0.265000000    -6.340000000
H     1.352000000    -0.065000000    -5.192000000
O    -4.002000000    -3.038000000    -6.248000000
H    -3.329000000    -2.926000000    -5.576000000
H    -3.745000000    -3.834000000    -6.714000000
O    -1.429000000    -1.429000000    -9.508000000
H    -0.677000000    -1.938000000    -9.808000000
H    -1.431000000    -1.541000000    -8.558000000
O     3.462000000    -3.365000000    -3.856000000
H     3.050000000    -4.192000000    -3.605000000
H     2.780000000    -2.707000000    -3.719000000
O    -0.800000000    -5.794000000    -7.635000000
H    -0.278000000    -4.992000000    -7.625000000
H    -1.536000000    -5.608000000    -7.051000000
O    -6.131000000    -4.974000000    -4.882000000
H    -6.476000000    -4.428000000    -5.589000000
H    -5.494000000    -4.415000000    -4.437000000
O    -0.703000000    -7.895000000    -5.708000000
H    -0.793000000    -7.525000000    -6.586000000
H     0.210000000    -7.731000000    -5.471000000
O     3.415000000    -1.703000000    -6.545000000
H     3.445000000    -2.083000000    -5.667000000
H     2.714000000    -1.053000000    -6.501000000
O    -3.004000000    -8.751000000    -2.147000000
H    -2.751000000    -9.465000000    -2.732000000
H    -2.574000000    -7.978000000    -2.513000000
O     0.844000000    -3.953000000    -6.515000000
H     1.608000000    -4.434000000    -6.196000000
H     0.285000000    -3.853000000    -5.744000000
O    -5.930000000    -1.422000000    -7.463000000
H    -5.936000000    -0.468000000    -7.546000000
H    -5.237000000    -1.603000000    -6.828000000
O     2.025000000    -1.066000000    -3.187000000
H     1.076000000    -1.037000000    -3.309000000
H     2.147000000    -0.994000000    -2.241000000
O    -4.697000000    -7.628000000    -5.305000000
H    -5.405000000    -7.305000000    -4.748000000
H    -3.899000000    -7.289000000    -4.899000000
O    -2.337000000    -6.575000000    -4.020000000
H    -1.823000000    -5.768000000    -3.997000000
H    -1.778000000    -7.202000000    -4.478000000
O    -3.616000000    -5.736000000    -7.217000000
H    -4.043000000    -6.139000000    -6.461000000
H    -4.032000000    -6.147000000    -7.974000000
O    -1.295000000    -1.139000000    -6.620000000
H    -1.371000000    -1.689000000    -5.840000000
H    -2.199000000    -0.925000000    -6.851000000
O     2.040000000    -7.610000000    -5.010000000
H     2.954000000    -7.355000000    -5.137000000
H     2.087000000    -8.476000000    -4.604000000
O     0.988000000    -2.778000000    -9.061000000
H     0.925000000    -2.964000000    -8.124000000
H     1.906000000    -2.546000000    -9.198000000
O     1.964000000    -5.335000000    -3.104000000
H     2.241000000    -6.183000000    -3.449000000
H     1.135000000    -5.155000000    -3.548000000
