215
-1458.29715
C    -4.337000000    -2.402000000    -1.779000000
H    -4.581000000    -1.348000000    -1.887000000
C    -3.782000000    -2.832000000    -0.600000000
C    -3.074000000    -4.064000000    -0.550000000
H    -2.564000000    -4.242000000     0.393000000
C    -3.662000000    -1.850000000     0.558000000
O    -4.806000000    -1.014000000     0.685000000
H    -2.824000000    -1.149000000     0.429000000
O    -3.502000000    -2.652000000     1.783000000
C    -2.741000000    -2.288000000     2.854000000
C    -1.554000000    -3.023000000     2.980000000
H    -1.403000000    -3.878000000     2.327000000
C    -0.564000000    -2.599000000     3.828000000
O     0.595000000    -3.321000000     3.819000000
C    -0.697000000    -1.400000000     4.526000000
C     0.352000000    -0.842000000     5.466000000
H    -0.203000000    -0.293000000     6.230000000
C     1.421000000    -0.035000000     4.743000000
C     1.318000000     1.354000000     4.764000000
H     0.474000000     1.797000000     5.286000000
H     0.768000000    -1.685000000     6.021000000
C    -1.927000000    -0.711000000     4.434000000
H    -2.038000000     0.182000000     5.045000000
C    -2.955000000    -1.172000000     3.611000000
C    -4.240000000    -0.343000000     3.559000000
H    -4.288000000     0.129000000     4.542000000
H    -5.137000000    -0.953000000     3.437000000
C    -4.286000000     0.644000000     2.403000000
C    -3.837000000     1.948000000     2.673000000
H    -3.592000000     2.191000000     3.703000000
C    -4.536000000     0.298000000     1.049000000
C    -4.351000000     1.276000000     0.062000000
H    -4.740000000     1.057000000    -0.930000000
C    -3.946000000     2.539000000     0.440000000
O    -3.533000000     3.373000000    -0.587000000
C    -2.188000000     3.402000000    -1.101000000
C    -2.045000000     3.168000000    -2.614000000
C    -0.959000000     3.724000000    -3.350000000
H    -0.132000000     4.173000000    -2.808000000
C    -3.077000000     2.483000000    -3.331000000
H    -3.942000000     2.168000000    -2.754000000
O    -1.547000000     4.570000000    -0.621000000
H    -1.711000000     2.584000000    -0.541000000
C    -3.626000000     2.892000000     1.742000000
C    -3.019000000     4.269000000     2.002000000
H    -3.247000000     4.583000000     3.023000000
H    -3.455000000     4.951000000     1.269000000
C    -1.485000000     4.200000000     1.788000000
C    -0.613000000     3.967000000     2.867000000
H    -1.170000000     3.700000000     3.762000000
C    -0.876000000     4.503000000     0.546000000
C     0.499000000     4.635000000     0.438000000
H     0.931000000     4.997000000    -0.492000000
C     1.352000000     4.321000000     1.497000000
O     2.682000000     4.168000000     1.236000000
C     3.146000000     2.790000000     1.170000000
C     3.982000000     2.577000000    -0.144000000
C     3.723000000     3.267000000    -1.313000000
H     2.950000000     4.031000000    -1.315000000
C     4.941000000     1.507000000    -0.204000000
H     5.003000000     0.864000000     0.670000000
O     3.849000000     2.255000000     2.316000000
H     2.274000000     2.138000000     1.013000000
C     0.797000000     3.921000000     2.753000000
C     1.775000000     3.652000000     3.850000000
H     1.130000000     3.893000000     4.697000000
H     2.653000000     4.299000000     3.908000000
C     2.168000000     2.146000000     4.060000000
C     3.078000000     1.559000000     3.193000000
C     3.269000000     0.239000000     3.269000000
H     4.003000000    -0.265000000     2.645000000
C     2.444000000    -0.604000000     3.992000000
O     2.564000000    -1.964000000     3.889000000
C     1.607000000    -2.730000000     3.035000000
H     1.087000000    -2.044000000     2.351000000
C     2.343000000    -3.734000000     2.130000000
C     1.757000000    -4.932000000     1.661000000
H     0.718000000    -5.084000000     1.941000000
C     3.584000000    -3.283000000     1.634000000
H     4.014000000    -2.378000000     2.056000000
C     4.251000000    -4.209000000     0.786000000
O     5.619000000    -3.995000000     0.384000000
C     3.707000000    -5.445000000     0.398000000
H     4.219000000    -6.077000000    -0.323000000
C     2.426000000    -5.757000000     0.835000000
O     1.823000000    -6.819000000     0.177000000
C     0.474000000    -7.061000000     0.287000000
C    -0.253000000    -6.481000000    -0.725000000
H     0.192000000    -5.973000000    -1.576000000
C    -0.048000000    -7.766000000     1.303000000
H     0.617000000    -8.101000000     2.095000000
C    -1.460000000    -7.877000000     1.356000000
H    -1.966000000    -8.387000000     2.171000000
C    -2.250000000    -7.406000000     0.256000000
H    -3.307000000    -7.636000000     0.150000000
C    -1.664000000    -6.611000000    -0.743000000
O    -2.446000000    -6.122000000    -1.773000000
C    -2.966000000    -4.854000000    -1.687000000
C    -3.538000000    -4.360000000    -2.861000000
H    -3.462000000    -4.998000000    -3.738000000
C    -4.193000000    -3.139000000    -2.912000000
O    -4.622000000    -2.590000000    -4.084000000
C    -5.194000000    -1.368000000    -4.292000000
C    -4.257000000    -0.350000000    -4.627000000
H    -3.186000000    -0.501000000    -4.736000000
C    -6.555000000    -1.176000000    -4.193000000
H    -7.262000000    -1.951000000    -3.910000000
C    -6.993000000     0.045000000    -4.514000000
H    -8.057000000     0.198000000    -4.351000000
C    -6.155000000     1.073000000    -4.900000000
H    -6.512000000     2.094000000    -5.006000000
C    -4.817000000     0.863000000    -5.041000000
O    -4.035000000     1.845000000    -5.449000000
C    -3.021000000     2.394000000    -4.717000000
C    -1.980000000     2.992000000    -5.401000000
H    -1.992000000     2.955000000    -6.487000000
C    -0.996000000     3.687000000    -4.719000000
O    -0.090000000     4.428000000    -5.472000000
C     1.026000000     4.907000000    -4.785000000
C     2.051000000     4.068000000    -4.356000000
H     1.993000000     2.989000000    -4.479000000
C     1.196000000     6.265000000    -4.829000000
H     0.440000000     6.883000000    -5.306000000
C     2.342000000     6.881000000    -4.248000000
H     2.446000000     7.963000000    -4.276000000
C     3.364000000     6.071000000    -3.723000000
H     4.247000000     6.466000000    -3.227000000
C     3.190000000     4.651000000    -3.773000000
O     4.241000000     3.795000000    -3.559000000
C     4.409000000     3.018000000    -2.465000000
C     5.392000000     2.011000000    -2.473000000
H     5.859000000     1.784000000    -3.428000000
C     5.609000000     1.206000000    -1.410000000
O     6.564000000     0.215000000    -1.510000000
C     6.716000000    -0.707000000    -0.466000000
C     7.848000000    -0.535000000     0.297000000
H     8.459000000     0.359000000     0.200000000
C     8.312000000    -1.630000000     1.068000000
H     9.312000000    -1.558000000     1.489000000
C     7.478000000    -2.754000000     1.234000000
H     7.870000000    -3.610000000     1.778000000
C     6.320000000    -2.863000000     0.429000000
C     5.915000000    -1.802000000    -0.381000000
H     4.962000000    -1.918000000    -0.890000000
C    -0.233000000    -1.243000000    -0.539000000
H    -0.343000000    -2.320000000    -0.440000000
C    -0.487000000    -0.452000000     0.573000000
H    -0.865000000    -0.821000000     1.523000000
C    -0.042000000     0.838000000     0.563000000
H    -0.167000000     1.525000000     1.385000000
C     0.573000000     1.347000000    -0.613000000
H     0.833000000     2.402000000    -0.609000000
C     0.841000000     0.562000000    -1.674000000
H     1.289000000     0.978000000    -2.572000000
C     0.348000000    -0.735000000    -1.701000000
C     0.555000000    -1.570000000    -2.981000000
O     0.759000000    -1.089000000    -4.068000000
O     0.454000000    -2.765000000    -2.878000000
O    -1.987000000    -7.484000000    -4.590000000
H    -1.790000000    -7.403000000    -5.524000000
H    -1.852000000    -6.603000000    -4.240000000
O     4.748000000    -1.166000000    -7.893000000
H     4.260000000    -1.144000000    -7.070000000
H     4.078000000    -1.080000000    -8.571000000
O    -4.796000000    -1.659000000    -7.996000000
H    -5.111000000    -0.866000000    -8.430000000
H    -3.910000000    -1.439000000    -7.708000000
O    -1.474000000    -2.259000000    -5.113000000
H    -1.532000000    -3.009000000    -4.520000000
H    -0.692000000    -1.787000000    -4.827000000
O    -0.768000000     0.299000000    -9.270000000
H    -0.557000000     1.166000000    -8.925000000
H    -1.541000000     0.440000000    -9.817000000
O     5.931000000    -3.985000000    -4.180000000
H     6.676000000    -4.011000000    -3.581000000
H     5.167000000    -3.904000000    -3.609000000
O     1.801000000    -6.172000000    -3.596000000
H     2.143000000    -6.109000000    -4.487000000
H     0.889000000    -5.892000000    -3.669000000
O     3.277000000    -8.262000000    -2.472000000
H     2.725000000    -7.515000000    -2.701000000
H     4.167000000    -7.973000000    -2.670000000
O     6.358000000    -3.300000000    -6.815000000
H     5.699000000    -2.663000000    -7.089000000
H     6.296000000    -3.313000000    -5.860000000
O     4.917000000    -1.279000000    -5.165000000
H     5.136000000    -1.250000000    -4.234000000
H     5.741000000    -1.083000000    -5.611000000
O     2.234000000     1.803000000    -8.095000000
H     2.303000000     1.450000000    -7.208000000
H     2.462000000     1.068000000    -8.664000000
O     3.300000000    -3.956000000    -2.785000000
H     2.973000000    -4.840000000    -2.954000000
H     2.522000000    -3.400000000    -2.834000000
O    -0.639000000    -5.045000000    -4.195000000
H    -0.399000000    -4.237000000    -3.741000000
H    -0.426000000    -4.876000000    -5.113000000
O     2.728000000     0.438000000    -5.551000000
H     3.587000000     0.130000000    -5.261000000
H     2.104000000    -0.093000000    -5.056000000
O     0.170000000    -4.835000000    -6.726000000
H    -0.295000000    -4.721000000    -7.555000000
H     0.849000000    -4.160000000    -6.738000000
O    -2.269000000    -1.168000000    -7.491000000
H    -1.685000000    -1.665000000    -6.919000000
H    -1.682000000    -0.686000000    -8.073000000
O     2.047000000    -3.066000000    -5.875000000
H     2.826000000    -2.563000000    -5.640000000
H     1.330000000    -2.624000000    -5.421000000
O     3.230000000    -5.548000000    -6.198000000
H     4.070000000    -5.574000000    -5.741000000
H     2.901000000    -4.662000000    -6.044000000
O    -4.041000000    -4.424000000    -6.313000000
H    -4.521000000    -3.978000000    -5.615000000
H    -3.613000000    -3.719000000    -6.798000000
