215
-1474.70916
C    -4.877000000    -1.756000000    -0.976000000
H    -5.538000000    -0.907000000    -0.818000000
C    -3.925000000    -2.083000000     0.032000000
C    -3.000000000    -3.167000000    -0.067000000
H    -2.234000000    -3.350000000     0.683000000
C    -3.754000000    -1.163000000     1.186000000
O    -4.789000000    -0.261000000     1.368000000
H    -2.802000000    -0.656000000     0.969000000
O    -3.581000000    -1.904000000     2.457000000
C    -2.617000000    -1.495000000     3.381000000
C    -1.459000000    -2.321000000     3.507000000
H    -1.412000000    -3.341000000     3.133000000
C    -0.318000000    -1.872000000     4.168000000
O     0.766000000    -2.688000000     4.196000000
C    -0.368000000    -0.556000000     4.704000000
C     0.861000000    -0.050000000     5.524000000
H     0.464000000     0.680000000     6.233000000
C     1.869000000     0.539000000     4.658000000
C     1.749000000     1.911000000     4.333000000
H     0.920000000     2.465000000     4.766000000
H     1.329000000    -0.887000000     6.046000000
C    -1.504000000     0.228000000     4.603000000
H    -1.454000000     1.205000000     5.076000000
C    -2.657000000    -0.195000000     3.905000000
C    -3.913000000     0.634000000     3.882000000
H    -3.921000000     1.238000000     4.791000000
H    -4.754000000    -0.063000000     3.863000000
C    -3.780000000     1.487000000     2.659000000
C    -3.254000000     2.786000000     2.751000000
H    -2.807000000     3.131000000     3.680000000
C    -4.369000000     1.039000000     1.451000000
C    -4.478000000     1.917000000     0.354000000
H    -4.813000000     1.544000000    -0.610000000
C    -3.838000000     3.124000000     0.404000000
O    -3.542000000     3.693000000    -0.797000000
C    -2.222000000     3.503000000    -1.350000000
C    -2.260000000     3.066000000    -2.802000000
C    -1.087000000     2.827000000    -3.507000000
H    -0.155000000     2.931000000    -2.957000000
C    -3.447000000     2.879000000    -3.468000000
H    -4.366000000     2.995000000    -2.900000000
O    -1.462000000     4.660000000    -1.136000000
H    -1.776000000     2.676000000    -0.778000000
C    -3.196000000     3.572000000     1.583000000
C    -2.455000000     4.898000000     1.595000000
H    -2.412000000     5.316000000     2.604000000
H    -2.904000000     5.560000000     0.852000000
C    -0.989000000     4.664000000     1.214000000
C     0.013000000     4.473000000     2.189000000
H    -0.297000000     4.427000000     3.229000000
C    -0.516000000     4.680000000    -0.115000000
C     0.814000000     4.310000000    -0.483000000
H     1.126000000     4.180000000    -1.516000000
C     1.774000000     4.024000000     0.506000000
O     3.089000000     3.592000000     0.135000000
C     3.583000000     2.224000000     0.293000000
C     4.450000000     1.758000000    -0.877000000
C     4.336000000     2.448000000    -2.079000000
H     3.709000000     3.335000000    -2.112000000
C     5.058000000     0.509000000    -0.872000000
H     4.950000000     0.082000000     0.122000000
O     4.247000000     2.084000000     1.596000000
H     2.809000000     1.443000000     0.322000000
C     1.332000000     4.161000000     1.854000000
C     2.369000000     3.932000000     2.973000000
H     2.082000000     4.518000000     3.849000000
H     3.285000000     4.435000000     2.656000000
C     2.569000000     2.506000000     3.370000000
C     3.536000000     1.717000000     2.690000000
C     3.614000000     0.344000000     2.909000000
H     4.208000000    -0.290000000     2.255000000
C     2.778000000    -0.209000000     3.894000000
O     2.861000000    -1.598000000     4.083000000
C     1.824000000    -2.331000000     3.270000000
H     1.475000000    -1.641000000     2.487000000
C     2.391000000    -3.543000000     2.647000000
C     1.564000000    -4.558000000     2.247000000
H     0.496000000    -4.536000000     2.448000000
C     3.772000000    -3.586000000     2.406000000
H     4.365000000    -2.722000000     2.695000000
C     4.302000000    -4.694000000     1.776000000
O     5.580000000    -4.627000000     1.379000000
C     3.505000000    -5.708000000     1.380000000
H     3.898000000    -6.576000000     0.856000000
C     2.129000000    -5.690000000     1.594000000
O     1.329000000    -6.723000000     1.083000000
C    -0.004000000    -6.544000000     1.013000000
C    -0.525000000    -5.886000000    -0.127000000
H     0.094000000    -5.469000000    -0.917000000
C    -0.807000000    -7.191000000     1.936000000
H    -0.312000000    -7.855000000     2.640000000
C    -2.201000000    -7.108000000     1.817000000
H    -2.809000000    -7.629000000     2.553000000
C    -2.727000000    -6.500000000     0.636000000
H    -3.808000000    -6.420000000     0.559000000
C    -1.881000000    -5.870000000    -0.252000000
O    -2.424000000    -5.224000000    -1.373000000
C    -3.074000000    -3.991000000    -1.168000000
C    -3.945000000    -3.634000000    -2.180000000
H    -4.038000000    -4.314000000    -3.023000000
C    -4.825000000    -2.527000000    -2.144000000
O    -5.786000000    -2.199000000    -3.167000000
C    -6.099000000    -0.892000000    -3.476000000
C    -5.216000000    -0.081000000    -4.168000000
H    -4.225000000    -0.483000000    -4.363000000
C    -7.377000000    -0.464000000    -3.260000000
H    -8.136000000    -1.132000000    -2.861000000
C    -7.783000000     0.769000000    -3.558000000
H    -8.806000000     1.113000000    -3.435000000
C    -6.926000000     1.635000000    -4.382000000
H    -7.319000000     2.613000000    -4.645000000
C    -5.640000000     1.195000000    -4.662000000
O    -4.759000000     2.059000000    -5.261000000
C    -3.490000000     2.298000000    -4.733000000
C    -2.358000000     1.933000000    -5.410000000
H    -2.378000000     1.413000000    -6.364000000
C    -1.144000000     2.195000000    -4.752000000
O    -0.003000000     1.966000000    -5.439000000
C     1.118000000     2.745000000    -5.413000000
C     2.309000000     2.190000000    -4.983000000
H     2.350000000     1.114000000    -4.834000000
C     1.047000000     4.138000000    -5.486000000
H     0.145000000     4.657000000    -5.801000000
C     2.122000000     4.928000000    -5.323000000
H     1.993000000     5.971000000    -5.602000000
C     3.358000000     4.422000000    -4.976000000
H     4.236000000     5.015000000    -4.733000000
C     3.451000000     3.028000000    -4.802000000
O     4.686000000     2.507000000    -4.466000000
C     4.830000000     1.892000000    -3.265000000
C     5.439000000     0.645000000    -3.290000000
H     5.800000000     0.142000000    -4.184000000
C     5.518000000    -0.058000000    -2.057000000
O     6.059000000    -1.310000000    -2.092000000
C     6.584000000    -1.904000000    -0.912000000
C     7.753000000    -1.457000000    -0.292000000
H     8.419000000    -0.740000000    -0.765000000
C     8.134000000    -2.059000000     0.881000000
H     9.092000000    -1.690000000     1.238000000
C     7.460000000    -3.145000000     1.471000000
H     7.878000000    -3.653000000     2.336000000
C     6.282000000    -3.564000000     0.852000000
C     5.848000000    -2.933000000    -0.332000000
H     4.910000000    -3.200000000    -0.812000000
C     1.284000000    -2.312000000    -0.749000000
H     1.234000000    -3.373000000    -0.518000000
C     0.399000000    -1.392000000    -0.215000000
H    -0.136000000    -1.736000000     0.666000000
C     0.413000000    -0.085000000    -0.670000000
H    -0.081000000     0.717000000    -0.043000000
C     1.212000000     0.217000000    -1.732000000
H     1.234000000     1.242000000    -2.093000000
C     1.993000000    -0.729000000    -2.393000000
H     2.710000000    -0.402000000    -3.141000000
C     2.034000000    -2.039000000    -1.887000000
C     2.868000000    -3.129000000    -2.507000000
O     3.429000000    -3.011000000    -3.600000000
O     2.741000000    -4.274000000    -2.130000000
O     1.140000000    -9.004000000    -2.890000000
H     0.318000000    -8.610000000    -3.185000000
H     1.626000000    -8.278000000    -2.497000000
O     7.413000000    -2.979000000    -3.745000000
H     7.164000000    -2.652000000    -4.610000000
H     6.942000000    -2.416000000    -3.131000000
O    -1.067000000    -7.583000000    -3.021000000
H    -2.002000000    -7.786000000    -2.989000000
H    -1.014000000    -6.658000000    -2.781000000
O    -1.340000000    -4.170000000    -4.826000000
H    -1.416000000    -3.551000000    -4.099000000
H    -0.516000000    -4.630000000    -4.663000000
O     6.316000000    -3.745000000    -6.261000000
H     5.819000000    -4.533000000    -6.482000000
H     7.106000000    -3.802000000    -6.799000000
O     1.772000000    -7.866000000    -7.359000000
H     2.317000000    -7.525000000    -6.650000000
H     2.136000000    -8.731000000    -7.548000000
O     8.359000000    -6.224000000     0.114000000
H     7.915000000    -6.199000000    -0.733000000
H     7.657000000    -6.365000000     0.749000000
O     0.905000000    -5.347000000    -3.761000000
H     1.523000000    -4.849000000    -3.226000000
H     1.374000000    -6.152000000    -3.982000000
O     4.597000000    -1.511000000    -5.458000000
H     4.165000000    -1.958000000    -4.730000000
H     5.382000000    -2.032000000    -5.626000000
O     2.375000000    -0.612000000    -6.651000000
H     1.880000000    -1.426000000    -6.558000000
H     3.191000000    -0.773000000    -6.176000000
O     6.622000000    -8.017000000    -3.681000000
H     7.110000000    -7.243000000    -3.401000000
H     5.731000000    -7.867000000    -3.364000000
O     4.678000000    -5.527000000    -3.605000000
H     5.017000000    -4.798000000    -4.124000000
H     4.219000000    -5.110000000    -2.876000000
O    -1.614000000    -1.667000000    -3.253000000
H    -1.122000000    -0.999000000    -3.730000000
H    -1.587000000    -1.379000000    -2.341000000
O     2.354000000    -7.011000000    -1.525000000
H     2.572000000    -6.096000000    -1.698000000
H     2.174000000    -7.042000000    -0.586000000
O    -1.997000000    -1.282000000    -6.475000000
H    -2.282000000    -2.166000000    -6.242000000
H    -1.086000000    -1.388000000    -6.747000000
O     1.914000000    -3.695000000    -5.602000000
H     1.425000000    -4.309000000    -5.054000000
H     2.696000000    -3.488000000    -5.090000000
O     2.233000000    -4.971000000    -8.008000000
H     1.857000000    -5.820000000    -7.774000000
H     2.247000000    -4.480000000    -7.187000000
O     8.122000000    -5.859000000    -2.769000000
H     9.071000000    -5.770000000    -2.860000000
H     7.783000000    -4.978000000    -2.926000000
O     3.216000000    -7.160000000    -5.254000000
H     3.695000000    -6.557000000    -4.685000000
H     3.524000000    -8.029000000    -4.996000000
