215
-1470.32324
C    -4.973000000    -2.103000000    -0.729000000
H    -5.741000000    -1.350000000    -0.570000000
C    -3.926000000    -2.247000000     0.186000000
C    -2.965000000    -3.172000000    -0.090000000
H    -2.115000000    -3.217000000     0.586000000
C    -3.743000000    -1.344000000     1.381000000
O    -4.942000000    -0.470000000     1.489000000
H    -2.870000000    -0.780000000     1.019000000
O    -3.630000000    -2.061000000     2.695000000
C    -2.687000000    -1.451000000     3.522000000
C    -1.525000000    -2.211000000     3.769000000
H    -1.445000000    -3.211000000     3.351000000
C    -0.449000000    -1.634000000     4.402000000
O     0.691000000    -2.387000000     4.538000000
C    -0.595000000    -0.349000000     4.948000000
C     0.630000000     0.288000000     5.711000000
H     0.295000000     1.120000000     6.334000000
C     1.575000000     0.915000000     4.674000000
C     1.379000000     2.228000000     4.209000000
H     0.659000000     2.893000000     4.678000000
H     1.054000000    -0.397000000     6.447000000
C    -1.789000000     0.376000000     4.848000000
H    -1.875000000     1.405000000     5.187000000
C    -2.803000000    -0.121000000     4.012000000
C    -4.070000000     0.721000000     3.855000000
H    -4.227000000     1.431000000     4.669000000
H    -4.898000000     0.010000000     3.894000000
C    -4.148000000     1.500000000     2.527000000
C    -3.639000000     2.787000000     2.428000000
H    -3.221000000     3.169000000     3.355000000
C    -4.609000000     0.831000000     1.397000000
C    -4.421000000     1.437000000     0.122000000
H    -4.673000000     0.958000000    -0.821000000
C    -3.793000000     2.707000000     0.029000000
O    -3.642000000     3.277000000    -1.196000000
C    -2.298000000     3.041000000    -1.695000000
C    -2.371000000     2.580000000    -3.195000000
C    -1.207000000     2.731000000    -3.977000000
H    -0.269000000     3.113000000    -3.584000000
C    -3.450000000     2.017000000    -3.878000000
H    -4.405000000     2.044000000    -3.360000000
O    -1.558000000     4.221000000    -1.579000000
H    -1.925000000     2.233000000    -1.047000000
C    -3.428000000     3.373000000     1.175000000
C    -2.595000000     4.648000000     1.069000000
H    -2.659000000     5.109000000     2.057000000
H    -3.098000000     5.421000000     0.484000000
C    -1.110000000     4.560000000     0.775000000
C    -0.277000000     4.351000000     1.833000000
H    -0.633000000     4.226000000     2.852000000
C    -0.650000000     4.326000000    -0.525000000
C     0.688000000     4.128000000    -0.779000000
H     1.077000000     3.993000000    -1.785000000
C     1.580000000     4.132000000     0.301000000
O     2.976000000     3.961000000     0.080000000
C     3.345000000     2.615000000     0.284000000
C     4.203000000     2.012000000    -0.816000000
C     4.126000000     2.494000000    -2.147000000
H     3.466000000     3.340000000    -2.319000000
C     4.963000000     0.838000000    -0.584000000
H     4.807000000     0.370000000     0.385000000
O     3.963000000     2.515000000     1.577000000
H     2.467000000     1.961000000     0.393000000
C     1.071000000     4.295000000     1.610000000
C     2.015000000     4.290000000     2.852000000
H     1.503000000     4.851000000     3.637000000
H     2.973000000     4.704000000     2.531000000
C     2.214000000     2.789000000     3.256000000
C     3.211000000     2.018000000     2.636000000
C     3.433000000     0.736000000     3.092000000
H     4.186000000     0.091000000     2.646000000
C     2.629000000     0.142000000     4.083000000
O     2.697000000    -1.190000000     4.419000000
C     1.814000000    -2.067000000     3.652000000
H     1.398000000    -1.487000000     2.814000000
C     2.564000000    -3.220000000     3.040000000
C     1.888000000    -4.357000000     2.660000000
H     0.807000000    -4.247000000     2.624000000
C     3.944000000    -3.218000000     2.906000000
H     4.516000000    -2.404000000     3.344000000
C     4.518000000    -4.177000000     2.188000000
O     5.877000000    -4.270000000     2.124000000
C     3.833000000    -5.237000000     1.634000000
H     4.439000000    -6.039000000     1.220000000
C     2.484000000    -5.341000000     1.872000000
O     1.818000000    -6.462000000     1.399000000
C     0.462000000    -6.435000000     1.095000000
C    -0.139000000    -5.573000000     0.127000000
H     0.475000000    -4.820000000    -0.361000000
C    -0.354000000    -7.444000000     1.608000000
H     0.135000000    -8.147000000     2.277000000
C    -1.714000000    -7.594000000     1.310000000
H    -2.248000000    -8.443000000     1.729000000
C    -2.330000000    -6.728000000     0.358000000
H    -3.322000000    -7.010000000     0.016000000
C    -1.526000000    -5.682000000    -0.218000000
O    -1.996000000    -5.011000000    -1.306000000
C    -3.038000000    -4.052000000    -1.173000000
C    -4.106000000    -3.954000000    -2.107000000
H    -4.208000000    -4.538000000    -3.018000000
C    -5.014000000    -2.910000000    -1.901000000
O    -6.008000000    -2.694000000    -2.867000000
C    -6.185000000    -1.447000000    -3.417000000
C    -5.250000000    -0.883000000    -4.263000000
H    -4.284000000    -1.361000000    -4.403000000
C    -7.440000000    -0.796000000    -3.301000000
H    -8.212000000    -1.230000000    -2.671000000
C    -7.683000000     0.339000000    -4.133000000
H    -8.675000000     0.773000000    -4.038000000
C    -6.661000000     0.944000000    -4.819000000
H    -6.862000000     1.920000000    -5.255000000
C    -5.433000000     0.280000000    -4.926000000
O    -4.457000000     0.839000000    -5.697000000
C    -3.463000000     1.580000000    -5.171000000
C    -2.315000000     1.683000000    -5.938000000
H    -2.339000000     1.425000000    -6.994000000
C    -1.125000000     2.201000000    -5.282000000
O     0.078000000     2.202000000    -6.051000000
C     1.216000000     2.854000000    -5.727000000
C     2.372000000     2.224000000    -5.241000000
H     2.329000000     1.145000000    -5.111000000
C     1.245000000     4.236000000    -5.958000000
H     0.313000000     4.610000000    -6.375000000
C     2.337000000     5.014000000    -5.586000000
H     2.506000000     6.066000000    -5.804000000
C     3.452000000     4.372000000    -5.062000000
H     4.310000000     4.883000000    -4.632000000
C     3.490000000     2.979000000    -4.851000000
O     4.567000000     2.344000000    -4.372000000
C     4.828000000     1.850000000    -3.115000000
C     5.493000000     0.676000000    -2.873000000
H     6.080000000     0.203000000    -3.655000000
C     5.544000000     0.139000000    -1.597000000
O     6.277000000    -1.081000000    -1.446000000
C     6.756000000    -1.564000000    -0.247000000
C     7.915000000    -1.029000000     0.406000000
H     8.532000000    -0.227000000     0.008000000
C     8.388000000    -1.629000000     1.580000000
H     9.236000000    -1.193000000     2.102000000
C     7.660000000    -2.612000000     2.244000000
H     8.070000000    -2.971000000     3.185000000
C     6.559000000    -3.171000000     1.573000000
C     6.088000000    -2.646000000     0.382000000
H     5.223000000    -3.023000000    -0.157000000
C     1.366000000    -1.836000000    -0.242000000
H     1.680000000    -2.636000000     0.424000000
C     0.729000000    -0.732000000     0.329000000
H     0.390000000    -0.667000000     1.359000000
C     0.504000000     0.435000000    -0.483000000
H     0.069000000     1.325000000    -0.030000000
C     0.797000000     0.418000000    -1.870000000
H     0.569000000     1.241000000    -2.542000000
C     1.413000000    -0.701000000    -2.367000000
H     1.807000000    -0.704000000    -3.379000000
C     1.697000000    -1.813000000    -1.564000000
C     2.400000000    -3.014000000    -2.207000000
O     2.634000000    -2.972000000    -3.400000000
O     2.553000000    -4.051000000    -1.555000000
O     2.128000000    -8.207000000    -2.867000000
H     2.208000000    -9.080000000    -2.482000000
H     2.730000000    -7.664000000    -2.358000000
O    -0.154000000    -1.299000000    -6.018000000
H     0.138000000    -2.130000000    -5.643000000
H     0.516000000    -1.080000000    -6.665000000
O    -1.729000000    -4.824000000    -4.068000000
H    -1.637000000    -3.923000000    -3.758000000
H    -1.008000000    -5.295000000    -3.650000000
O     5.346000000    -3.976000000    -6.087000000
H     4.814000000    -4.575000000    -6.611000000
H     6.250000000    -4.217000000    -6.291000000
O     0.876000000    -5.655000000    -3.142000000
H     1.453000000    -5.163000000    -2.558000000
H     1.281000000    -6.520000000    -3.207000000
O     4.690000000    -1.400000000    -5.659000000
H     3.839000000    -1.599000000    -5.268000000
H     5.011000000    -2.244000000    -5.977000000
O     2.160000000    -1.177000000    -7.668000000
H     2.213000000    -1.772000000    -8.416000000
H     2.583000000    -1.652000000    -6.953000000
O     4.432000000    -4.893000000    -3.752000000
H     4.862000000    -4.338000000    -4.403000000
H     3.609000000    -4.443000000    -3.560000000
O    -0.082000000    -7.442000000    -6.003000000
H     0.862000000    -7.295000000    -6.060000000
H    -0.453000000    -6.569000000    -5.871000000
O    -1.053000000    -1.887000000    -3.464000000
H    -0.484000000    -1.379000000    -2.885000000
H    -1.340000000    -1.261000000    -4.128000000
O     5.506000000     0.898000000    -6.739000000
H     5.333000000     0.060000000    -6.311000000
H     5.144000000     1.552000000    -6.140000000
O     3.978000000    -6.158000000    -1.446000000
H     3.489000000    -5.440000000    -1.044000000
H     4.251000000    -5.815000000    -2.297000000
O     0.948000000    -3.641000000    -5.251000000
H     0.388000000    -4.163000000    -4.677000000
H     1.690000000    -3.391000000    -4.700000000
O     1.128000000    -4.402000000    -7.957000000
H     0.311000000    -4.895000000    -8.033000000
H     1.118000000    -4.058000000    -7.063000000
O    -3.004000000    -7.338000000    -3.342000000
H    -2.762000000    -6.413000000    -3.379000000
H    -3.673000000    -7.383000000    -2.659000000
O     6.585000000    -5.789000000    -0.775000000
H     6.753000000    -5.308000000    -1.585000000
H     5.674000000    -6.070000000    -0.848000000
O     4.398000000    -6.302000000    -7.579000000
H     3.678000000    -6.517000000    -6.986000000
H     4.908000000    -7.110000000    -7.640000000
O     2.816000000    -6.860000000    -5.285000000
H     3.275000000    -6.122000000    -4.885000000
H     2.890000000    -7.566000000    -4.642000000
O     8.356000000    -1.630000000    -4.778000000
H     8.590000000    -1.892000000    -5.668000000
H     7.443000000    -1.349000000    -4.843000000
