215
-1453.39542
C    -3.603000000    -3.072000000    -1.443000000
H    -3.932000000    -2.106000000    -1.819000000
C    -3.362000000    -3.286000000    -0.078000000
C    -2.773000000    -4.515000000     0.244000000
H    -2.358000000    -4.632000000     1.242000000
C    -3.477000000    -2.099000000     0.847000000
O    -4.578000000    -1.198000000     0.527000000
H    -2.523000000    -1.553000000     0.821000000
O    -3.613000000    -2.556000000     2.219000000
C    -2.935000000    -1.942000000     3.211000000
C    -1.825000000    -2.576000000     3.748000000
H    -1.443000000    -3.491000000     3.303000000
C    -0.902000000    -1.863000000     4.533000000
O     0.358000000    -2.381000000     4.656000000
C    -1.193000000    -0.528000000     4.901000000
C    -0.229000000     0.430000000     5.561000000
H    -0.866000000     1.153000000     6.075000000
C     0.707000000     1.110000000     4.634000000
C     0.451000000     2.406000000     4.286000000
H    -0.421000000     2.975000000     4.597000000
H     0.279000000    -0.130000000     6.349000000
C    -2.431000000     0.027000000     4.569000000
H    -2.608000000     1.074000000     4.804000000
C    -3.239000000    -0.631000000     3.619000000
C    -4.522000000     0.081000000     3.120000000
H    -4.949000000     0.720000000     3.895000000
H    -5.272000000    -0.686000000     2.915000000
C    -4.282000000     0.857000000     1.813000000
C    -3.970000000     2.275000000     1.780000000
H    -3.810000000     2.779000000     2.730000000
C    -4.392000000     0.171000000     0.615000000
C    -4.184000000     0.860000000    -0.587000000
H    -4.198000000     0.323000000    -1.532000000
C    -3.928000000     2.189000000    -0.605000000
O    -3.636000000     2.792000000    -1.750000000
C    -2.271000000     2.911000000    -2.131000000
C    -1.973000000     2.558000000    -3.540000000
C    -0.803000000     2.951000000    -4.179000000
H    -0.154000000     3.655000000    -3.665000000
C    -2.778000000     1.556000000    -4.209000000
H    -3.629000000     1.167000000    -3.656000000
O    -1.915000000     4.260000000    -1.887000000
H    -1.762000000     2.225000000    -1.438000000
C    -3.868000000     2.933000000     0.594000000
C    -3.486000000     4.410000000     0.579000000
H    -3.808000000     4.905000000     1.497000000
H    -3.992000000     4.873000000    -0.271000000
C    -2.004000000     4.572000000     0.525000000
C    -1.284000000     4.609000000     1.754000000
H    -1.935000000     4.503000000     2.617000000
C    -1.309000000     4.516000000    -0.703000000
C     0.013000000     4.525000000    -0.680000000
H     0.508000000     4.472000000    -1.647000000
C     0.676000000     4.611000000     0.510000000
O     2.068000000     4.585000000     0.436000000
C     2.707000000     3.245000000     0.513000000
C     3.763000000     2.940000000    -0.548000000
C     3.826000000     3.678000000    -1.708000000
H     2.998000000     4.312000000    -2.013000000
C     4.623000000     1.847000000    -0.336000000
H     4.532000000     1.212000000     0.542000000
O     3.212000000     2.962000000     1.879000000
H     1.866000000     2.565000000     0.312000000
C     0.048000000     4.620000000     1.760000000
C     0.920000000     4.567000000     3.042000000
H     0.400000000     5.099000000     3.841000000
H     1.849000000     5.096000000     2.819000000
C     1.272000000     3.114000000     3.422000000
C     2.363000000     2.434000000     2.839000000
C     2.641000000     1.148000000     3.253000000
H     3.455000000     0.579000000     2.811000000
C     1.851000000     0.527000000     4.148000000
O     2.132000000    -0.810000000     4.442000000
C     1.403000000    -1.801000000     3.745000000
H     0.909000000    -1.289000000     2.906000000
C     2.277000000    -2.926000000     3.279000000
C     1.812000000    -4.231000000     3.092000000
H     0.781000000    -4.472000000     3.338000000
C     3.591000000    -2.625000000     2.811000000
H     3.980000000    -1.613000000     2.734000000
C     4.433000000    -3.650000000     2.254000000
O     5.626000000    -3.427000000     1.560000000
C     3.925000000    -4.930000000     2.047000000
H     4.636000000    -5.578000000     1.541000000
C     2.601000000    -5.220000000     2.464000000
O     2.166000000    -6.516000000     2.419000000
C     0.883000000    -6.954000000     2.138000000
C     0.186000000    -6.589000000     0.993000000
H     0.480000000    -5.889000000     0.216000000
C     0.317000000    -7.904000000     2.986000000
H     0.825000000    -8.295000000     3.863000000
C    -0.927000000    -8.481000000     2.662000000
H    -1.325000000    -9.181000000     3.393000000
C    -1.721000000    -8.021000000     1.587000000
H    -2.740000000    -8.361000000     1.418000000
C    -1.098000000    -7.071000000     0.718000000
O    -1.788000000    -6.738000000    -0.425000000
C    -2.488000000    -5.498000000    -0.726000000
C    -2.877000000    -5.295000000    -2.049000000
H    -2.761000000    -6.100000000    -2.771000000
C    -3.461000000    -4.082000000    -2.416000000
O    -3.868000000    -3.935000000    -3.768000000
C    -4.462000000    -2.721000000    -4.256000000
C    -3.651000000    -1.837000000    -4.930000000
H    -2.613000000    -2.137000000    -5.044000000
C    -5.781000000    -2.413000000    -4.011000000
H    -6.378000000    -3.201000000    -3.560000000
C    -6.267000000    -1.169000000    -4.430000000
H    -7.331000000    -0.964000000    -4.348000000
C    -5.483000000    -0.305000000    -5.189000000
H    -5.970000000     0.618000000    -5.492000000
C    -4.187000000    -0.693000000    -5.533000000
O    -3.335000000     0.176000000    -6.121000000
C    -2.501000000     1.034000000    -5.467000000
C    -1.230000000     1.420000000    -5.996000000
H    -0.813000000     1.126000000    -6.956000000
C    -0.379000000     2.374000000    -5.415000000
O     0.826000000     2.729000000    -6.046000000
C     1.519000000     3.881000000    -5.650000000
C     2.625000000     3.523000000    -4.926000000
H     2.770000000     2.502000000    -4.584000000
C     1.473000000     5.082000000    -6.251000000
H     0.551000000     5.322000000    -6.774000000
C     2.460000000     6.041000000    -6.024000000
H     2.322000000     7.044000000    -6.421000000
C     3.571000000     5.665000000    -5.237000000
H     4.391000000     6.357000000    -5.061000000
C     3.619000000     4.386000000    -4.620000000
O     4.724000000     3.901000000    -3.917000000
C     4.736000000     3.301000000    -2.690000000
C     5.651000000     2.314000000    -2.480000000
H     6.366000000     1.983000000    -3.230000000
C     5.582000000     1.621000000    -1.255000000
O     6.419000000     0.531000000    -1.056000000
C     6.520000000    -0.144000000     0.137000000
C     7.096000000     0.437000000     1.301000000
H     7.265000000     1.509000000     1.244000000
C     7.249000000    -0.236000000     2.542000000
H     7.547000000     0.178000000     3.502000000
C     6.802000000    -1.553000000     2.555000000
H     6.947000000    -2.110000000     3.477000000
C     6.300000000    -2.234000000     1.389000000
C     6.257000000    -1.504000000     0.189000000
H     5.889000000    -2.053000000    -0.674000000
C     0.781000000    -2.005000000     0.055000000
H     0.637000000    -3.039000000     0.357000000
C    -0.024000000    -1.037000000     0.640000000
H    -0.657000000    -1.240000000     1.500000000
C    -0.041000000     0.249000000     0.106000000
H    -0.601000000     0.965000000     0.600000000
C     0.684000000     0.620000000    -0.975000000
H     0.609000000     1.607000000    -1.426000000
C     1.607000000    -0.327000000    -1.506000000
H     2.241000000    -0.146000000    -2.370000000
C     1.600000000    -1.674000000    -1.022000000
C     2.324000000    -2.766000000    -1.760000000
O     3.001000000    -2.514000000    -2.721000000
O     2.266000000    -3.980000000    -1.407000000
O     2.606000000    -3.263000000    -7.970000000
H     2.689000000    -3.438000000    -7.033000000
H     1.675000000    -3.084000000    -8.099000000
O     1.697000000    -8.845000000    -0.946000000
H     2.317000000    -9.460000000    -0.553000000
H     2.085000000    -7.983000000    -0.793000000
O     5.058000000     1.299000000    -5.640000000
H     4.715000000     0.813000000    -4.890000000
H     5.229000000     0.629000000    -6.302000000
O     1.258000000    -1.267000000    -4.755000000
H     0.496000000    -1.238000000    -4.177000000
H     1.924000000    -1.735000000    -4.251000000
O    -1.168000000    -4.644000000    -5.174000000
H    -2.021000000    -4.946000000    -4.862000000
H    -0.590000000    -4.731000000    -4.415000000
O     0.802000000    -6.165000000    -6.316000000
H     0.398000000    -7.002000000    -6.087000000
H     0.063000000    -5.570000000    -6.446000000
O     0.614000000    -5.059000000    -2.931000000
H     1.067000000    -4.706000000    -2.165000000
H     0.995000000    -5.927000000    -3.056000000
O     6.380000000    -1.967000000    -4.952000000
H     6.266000000    -2.682000000    -5.578000000
H     6.854000000    -1.294000000    -5.440000000
O     4.335000000    -0.635000000    -3.871000000
H     3.718000000    -1.202000000    -3.408000000
H     5.078000000    -1.204000000    -4.072000000
O     3.351000000    -0.724000000    -7.171000000
H     3.562000000    -1.657000000    -7.210000000
H     2.706000000    -0.654000000    -6.467000000
O     4.971000000    -4.523000000    -2.578000000
H     5.423000000    -4.049000000    -3.276000000
H     4.272000000    -3.931000000    -2.300000000
O    -1.006000000    -1.279000000    -3.115000000
H    -1.271000000    -2.068000000    -2.643000000
H    -0.433000000    -0.815000000    -2.505000000
O     2.986000000    -6.321000000    -1.164000000
H     2.683000000    -5.415000000    -1.215000000
H     3.551000000    -6.429000000    -1.929000000
O    -0.018000000    -2.773000000    -6.917000000
H    -0.105000000    -3.428000000    -6.224000000
H     0.150000000    -1.953000000    -6.453000000
O     5.160000000    -7.233000000    -3.468000000
H     6.031000000    -7.552000000    -3.702000000
H     5.290000000    -6.306000000    -3.267000000
O     3.582000000    -3.390000000    -5.314000000
H     3.745000000    -4.332000000    -5.281000000
H     3.245000000    -3.174000000    -4.445000000
O     8.057000000    -4.027000000    -1.904000000
H     8.976000000    -4.056000000    -1.638000000
H     8.029000000    -4.521000000    -2.724000000
O     3.314000000    -6.050000000    -5.463000000
H     2.435000000    -6.064000000    -5.840000000
H     3.599000000    -6.964000000    -5.486000000
O     6.363000000    -5.527000000    -0.353000000
H     6.878000000    -4.882000000    -0.838000000
H     5.496000000    -5.495000000    -0.758000000
