215
-1471.78161
C    -3.949000000    -3.481000000    -1.143000000
H    -4.792000000    -2.799000000    -1.216000000
C    -3.124000000    -3.411000000    -0.052000000
C    -1.923000000    -4.120000000    -0.079000000
H    -1.264000000    -4.022000000     0.780000000
C    -3.417000000    -2.332000000     1.014000000
O    -4.629000000    -1.589000000     0.796000000
H    -2.525000000    -1.709000000     0.854000000
O    -3.403000000    -2.809000000     2.368000000
C    -2.635000000    -2.174000000     3.330000000
C    -1.388000000    -2.616000000     3.606000000
H    -1.033000000    -3.558000000     3.196000000
C    -0.538000000    -1.834000000     4.343000000
O     0.728000000    -2.337000000     4.486000000
C    -0.960000000    -0.590000000     4.820000000
C     0.011000000     0.309000000     5.538000000
H    -0.598000000     0.978000000     6.148000000
C     0.789000000     1.150000000     4.570000000
C     0.466000000     2.430000000     4.319000000
H    -0.381000000     2.827000000     4.874000000
H     0.659000000    -0.221000000     6.239000000
C    -2.245000000    -0.084000000     4.536000000
H    -2.478000000     0.932000000     4.842000000
C    -3.094000000    -0.878000000     3.746000000
C    -4.436000000    -0.379000000     3.384000000
H    -4.902000000     0.270000000     4.129000000
H    -5.200000000    -1.150000000     3.267000000
C    -4.378000000     0.409000000     2.103000000
C    -4.208000000     1.820000000     2.149000000
H    -4.057000000     2.335000000     3.094000000
C    -4.477000000    -0.174000000     0.881000000
C    -4.386000000     0.497000000    -0.307000000
H    -4.580000000    -0.093000000    -1.200000000
C    -4.175000000     1.872000000    -0.257000000
O    -4.097000000     2.551000000    -1.449000000
C    -2.724000000     2.885000000    -1.884000000
C    -2.584000000     2.597000000    -3.383000000
C    -1.749000000     3.338000000    -4.208000000
H    -1.340000000     4.313000000    -3.956000000
C    -3.088000000     1.375000000    -3.874000000
H    -3.701000000     0.702000000    -3.281000000
O    -2.412000000     4.233000000    -1.540000000
H    -2.039000000     2.223000000    -1.335000000
C    -3.985000000     2.479000000     0.932000000
C    -3.749000000     3.999000000     1.088000000
H    -4.111000000     4.286000000     2.077000000
H    -4.325000000     4.523000000     0.322000000
C    -2.280000000     4.372000000     0.885000000
C    -1.458000000     4.496000000     1.999000000
H    -1.847000000     4.350000000     3.004000000
C    -1.649000000     4.363000000    -0.371000000
C    -0.223000000     4.512000000    -0.500000000
H     0.267000000     4.351000000    -1.457000000
C     0.523000000     4.679000000     0.621000000
O     1.896000000     4.556000000     0.457000000
C     2.563000000     3.353000000     0.638000000
C     3.490000000     3.025000000    -0.484000000
C     3.303000000     3.553000000    -1.819000000
H     2.503000000     4.263000000    -2.007000000
C     4.514000000     2.133000000    -0.215000000
H     4.801000000     1.701000000     0.740000000
O     3.100000000     3.297000000     1.908000000
H     1.799000000     2.562000000     0.651000000
C    -0.096000000     4.615000000     1.902000000
C     0.812000000     4.572000000     3.139000000
H     0.481000000     5.065000000     4.055000000
H     1.665000000     5.245000000     3.028000000
C     1.211000000     3.190000000     3.408000000
C     2.364000000     2.655000000     2.878000000
C     2.840000000     1.361000000     3.294000000
H     3.794000000     0.967000000     2.954000000
C     1.971000000     0.645000000     4.056000000
O     2.342000000    -0.646000000     4.381000000
C     1.781000000    -1.785000000     3.653000000
H     1.258000000    -1.344000000     2.792000000
C     2.732000000    -2.853000000     3.238000000
C     2.285000000    -4.159000000     3.177000000
H     1.312000000    -4.491000000     3.529000000
C     3.986000000    -2.512000000     2.695000000
H     4.256000000    -1.461000000     2.627000000
C     4.789000000    -3.463000000     2.069000000
O     6.006000000    -3.058000000     1.606000000
C     4.300000000    -4.743000000     1.970000000
H     4.888000000    -5.479000000     1.426000000
C     3.070000000    -5.140000000     2.516000000
O     2.667000000    -6.411000000     2.365000000
C     1.550000000    -6.805000000     1.668000000
C     1.314000000    -6.128000000     0.467000000
H     2.095000000    -5.497000000     0.050000000
C     0.681000000    -7.796000000     2.028000000
H     0.943000000    -8.387000000     2.901000000
C    -0.420000000    -8.148000000     1.255000000
H    -1.077000000    -8.910000000     1.665000000
C    -0.797000000    -7.359000000     0.165000000
H    -1.781000000    -7.500000000    -0.275000000
C     0.092000000    -6.370000000    -0.254000000
O    -0.265000000    -5.429000000    -1.179000000
C    -1.510000000    -4.833000000    -1.200000000
C    -2.447000000    -5.083000000    -2.228000000
H    -2.227000000    -5.804000000    -3.011000000
C    -3.633000000    -4.334000000    -2.260000000
O    -4.413000000    -4.408000000    -3.423000000
C    -4.780000000    -3.277000000    -4.134000000
C    -3.791000000    -2.378000000    -4.575000000
H    -2.759000000    -2.711000000    -4.496000000
C    -6.045000000    -2.846000000    -4.118000000
H    -6.729000000    -3.565000000    -3.674000000
C    -6.369000000    -1.594000000    -4.662000000
H    -7.410000000    -1.297000000    -4.564000000
C    -5.421000000    -0.730000000    -5.138000000
H    -5.691000000     0.259000000    -5.499000000
C    -4.111000000    -1.125000000    -5.092000000
O    -3.087000000    -0.342000000    -5.581000000
C    -2.602000000     0.858000000    -5.038000000
C    -1.762000000     1.612000000    -5.865000000
H    -1.349000000     1.083000000    -6.721000000
C    -1.283000000     2.822000000    -5.424000000
O    -0.378000000     3.510000000    -6.206000000
C     0.698000000     4.189000000    -5.702000000
C     1.684000000     3.493000000    -5.050000000
H     1.583000000     2.412000000    -4.987000000
C     0.951000000     5.503000000    -6.025000000
H     0.076000000     5.951000000    -6.490000000
C     2.067000000     6.204000000    -5.647000000
H     2.195000000     7.250000000    -5.910000000
C     3.052000000     5.470000000    -5.008000000
H     4.009000000     5.952000000    -4.822000000
C     2.892000000     4.113000000    -4.671000000
O     3.923000000     3.468000000    -4.085000000
C     4.056000000     3.030000000    -2.840000000
C     5.032000000     2.088000000    -2.631000000
H     5.532000000     1.637000000    -3.485000000
C     5.257000000     1.648000000    -1.325000000
O     6.332000000     0.746000000    -1.129000000
C     6.608000000     0.166000000     0.084000000
C     7.306000000     0.844000000     1.114000000
H     7.589000000     1.886000000     0.983000000
C     7.597000000     0.162000000     2.299000000
H     8.200000000     0.642000000     3.066000000
C     7.190000000    -1.155000000     2.518000000
H     7.522000000    -1.659000000     3.422000000
C     6.460000000    -1.822000000     1.507000000
C     6.268000000    -1.212000000     0.303000000
H     5.783000000    -1.766000000    -0.497000000
C    -0.361000000    -1.325000000    -1.568000000
H    -1.100000000    -1.720000000    -2.261000000
C    -0.647000000    -0.282000000    -0.705000000
H    -1.671000000     0.078000000    -0.643000000
C     0.351000000     0.285000000     0.040000000
H     0.141000000     1.074000000     0.753000000
C     1.626000000    -0.260000000     0.110000000
H     2.404000000     0.267000000     0.657000000
C     1.963000000    -1.280000000    -0.751000000
H     2.989000000    -1.635000000    -0.783000000
C     0.960000000    -1.845000000    -1.594000000
C     1.388000000    -3.012000000    -2.462000000
O     2.468000000    -3.504000000    -2.357000000
O     0.750000000    -3.293000000    -3.511000000
O     1.661000000    -6.127000000    -3.050000000
H     2.598000000    -6.057000000    -2.870000000
H     1.349000000    -5.222000000    -3.056000000
O     1.911000000    -2.673000000    -8.232000000
H     2.071000000    -2.918000000    -7.321000000
H     1.003000000    -2.373000000    -8.244000000
O     1.671000000    -9.390000000    -1.127000000
H     2.472000000    -9.091000000    -1.558000000
H     1.728000000    -9.032000000    -0.241000000
O    -2.531000000    -6.051000000    -5.636000000
H    -2.307000000    -6.902000000    -5.258000000
H    -1.724000000    -5.540000000    -5.572000000
O     1.644000000     0.209000000    -6.444000000
H     0.980000000    -0.421000000    -6.162000000
H     2.154000000    -0.260000000    -7.104000000
O    -0.028000000    -1.070000000    -4.801000000
H     0.353000000    -0.263000000    -4.455000000
H     0.085000000    -1.709000000    -4.097000000
O     3.559000000     0.039000000    -4.711000000
H     2.975000000     0.203000000    -5.453000000
H     4.412000000     0.361000000    -5.003000000
O     2.318000000    -3.784000000    -5.737000000
H     1.801000000    -3.620000000    -4.949000000
H     3.105000000    -3.252000000    -5.623000000
O     5.009000000    -2.881000000    -5.637000000
H     5.059000000    -3.762000000    -6.009000000
H     5.906000000    -2.550000000    -5.687000000
O     5.043000000    -2.463000000    -2.836000000
H     4.187000000    -2.676000000    -2.464000000
H     4.852000000    -2.189000000    -3.733000000
O     0.996000000     0.875000000    -3.000000000
H     1.807000000     0.419000000    -3.224000000
H     0.813000000     0.609000000    -2.099000000
O    -0.739000000    -4.098000000    -5.529000000
H    -0.257000000    -3.701000000    -4.804000000
H    -0.116000000    -4.705000000    -5.927000000
O    -0.687000000    -1.743000000    -7.441000000
H    -0.513000000    -1.886000000    -6.510000000
H    -1.596000000    -2.019000000    -7.559000000
O     4.289000000    -5.608000000    -3.418000000
H     4.745000000    -5.531000000    -4.256000000
H     4.036000000    -4.711000000    -3.200000000
O     1.000000000    -5.968000000    -7.034000000
H     1.790000000    -5.453000000    -6.871000000
H     0.577000000    -5.530000000    -7.773000000
O     6.039000000    -5.052000000    -0.674000000
H     5.363000000    -4.943000000    -1.343000000
H     6.685000000    -4.374000000    -0.874000000
O     4.302000000    -8.201000000    -2.177000000
H     4.133000000    -8.640000000    -3.010000000
H     4.438000000    -7.283000000    -2.413000000
O     7.556000000    -3.048000000    -1.789000000
H     6.680000000    -2.807000000    -2.093000000
H     8.096000000    -2.283000000    -1.986000000
O     1.340000000    -7.957000000    -5.225000000
H     1.290000000    -7.350000000    -4.487000000
H     0.967000000    -7.471000000    -5.960000000
