215
-1437.13562
C    -3.394000000    -3.848000000    -1.389000000
H    -3.624000000    -2.856000000    -1.768000000
C    -3.020000000    -3.960000000    -0.022000000
C    -2.400000000    -5.152000000     0.384000000
H    -2.050000000    -5.218000000     1.411000000
C    -3.232000000    -2.835000000     1.017000000
O    -4.455000000    -2.159000000     0.806000000
H    -2.397000000    -2.120000000     0.970000000
O    -3.308000000    -3.371000000     2.396000000
C    -2.528000000    -2.673000000     3.286000000
C    -1.195000000    -2.989000000     3.485000000
H    -0.701000000    -3.876000000     3.098000000
C    -0.408000000    -2.036000000     4.221000000
O     0.966000000    -2.331000000     4.317000000
C    -0.886000000    -0.788000000     4.680000000
C    -0.038000000     0.108000000     5.518000000
H    -0.628000000     0.713000000     6.209000000
C     0.733000000     1.101000000     4.599000000
C     0.212000000     2.349000000     4.377000000
H    -0.657000000     2.678000000     4.941000000
H     0.583000000    -0.592000000     6.082000000
C    -2.225000000    -0.496000000     4.445000000
H    -2.615000000     0.402000000     4.918000000
C    -3.015000000    -1.422000000     3.697000000
C    -4.430000000    -0.807000000     3.356000000
H    -4.847000000    -0.182000000     4.148000000
H    -5.222000000    -1.554000000     3.277000000
C    -4.388000000    -0.066000000     2.071000000
C    -4.187000000     1.300000000     2.017000000
H    -3.901000000     1.815000000     2.931000000
C    -4.472000000    -0.754000000     0.814000000
C    -4.348000000    -0.034000000    -0.450000000
H    -4.523000000    -0.542000000    -1.394000000
C    -4.198000000     1.374000000    -0.472000000
O    -4.086000000     2.020000000    -1.625000000
C    -2.825000000     2.676000000    -1.913000000
C    -2.306000000     2.338000000    -3.323000000
C    -1.688000000     3.251000000    -4.116000000
H    -1.387000000     4.214000000    -3.710000000
C    -2.531000000     1.100000000    -3.879000000
H    -3.134000000     0.404000000    -3.301000000
O    -2.782000000     4.099000000    -1.545000000
H    -2.149000000     2.161000000    -1.213000000
C    -4.098000000     1.994000000     0.842000000
C    -4.100000000     3.511000000     0.925000000
H    -4.683000000     3.820000000     1.795000000
H    -4.706000000     3.920000000     0.113000000
C    -2.677000000     4.148000000     0.927000000
C    -1.905000000     4.195000000     2.048000000
H    -2.289000000     3.861000000     3.008000000
C    -2.148000000     4.454000000    -0.365000000
C    -0.796000000     4.718000000    -0.443000000
H    -0.375000000     4.883000000    -1.431000000
C    -0.014000000     4.866000000     0.708000000
O     1.313000000     4.863000000     0.503000000
C     2.053000000     3.674000000     0.571000000
C     3.075000000     3.600000000    -0.523000000
C     2.879000000     4.173000000    -1.800000000
H     1.958000000     4.714000000    -2.004000000
C     4.282000000     2.851000000    -0.367000000
H     4.453000000     2.360000000     0.587000000
O     2.660000000     3.548000000     1.947000000
H     1.401000000     2.802000000     0.415000000
C    -0.530000000     4.553000000     1.954000000
C     0.373000000     4.538000000     3.199000000
H    -0.147000000     4.869000000     4.100000000
H     1.211000000     5.231000000     3.096000000
C     0.846000000     3.137000000     3.390000000
C     2.092000000     2.801000000     2.881000000
C     2.746000000     1.639000000     3.341000000
H     3.749000000     1.413000000     2.988000000
C     1.989000000     0.757000000     4.071000000
O     2.514000000    -0.541000000     4.196000000
C     1.874000000    -1.585000000     3.428000000
H     1.222000000    -1.232000000     2.616000000
C     2.842000000    -2.554000000     2.735000000
C     2.541000000    -3.895000000     2.500000000
H     1.638000000    -4.337000000     2.913000000
C     4.072000000    -2.083000000     2.219000000
H     4.412000000    -1.096000000     2.520000000
C     4.782000000    -2.932000000     1.418000000
O     5.901000000    -2.402000000     0.791000000
C     4.357000000    -4.204000000     1.057000000
H     4.903000000    -4.844000000     0.369000000
C     3.205000000    -4.673000000     1.565000000
O     2.820000000    -5.881000000     1.156000000
C     1.675000000    -6.550000000     1.517000000
C     0.543000000    -6.489000000     0.676000000
H     0.504000000    -5.724000000    -0.095000000
C     1.719000000    -7.537000000     2.486000000
H     2.655000000    -7.687000000     3.017000000
C     0.679000000    -8.455000000     2.651000000
H     0.803000000    -9.151000000     3.476000000
C    -0.392000000    -8.494000000     1.713000000
H    -1.112000000    -9.305000000     1.788000000
C    -0.496000000    -7.432000000     0.786000000
O    -1.587000000    -7.410000000    -0.118000000
C    -2.337000000    -6.283000000    -0.423000000
C    -2.680000000    -6.136000000    -1.770000000
H    -2.528000000    -6.940000000    -2.486000000
C    -3.292000000    -4.962000000    -2.266000000
O    -3.308000000    -4.741000000    -3.634000000
C    -3.667000000    -3.543000000    -4.133000000
C    -2.749000000    -2.741000000    -4.786000000
H    -1.667000000    -2.840000000    -4.784000000
C    -5.005000000    -3.144000000    -3.996000000
H    -5.803000000    -3.758000000    -3.588000000
C    -5.421000000    -1.924000000    -4.597000000
H    -6.454000000    -1.587000000    -4.565000000
C    -4.473000000    -1.135000000    -5.306000000
H    -4.698000000    -0.167000000    -5.745000000
C    -3.131000000    -1.507000000    -5.260000000
O    -2.247000000    -0.550000000    -5.680000000
C    -2.141000000     0.758000000    -5.159000000
C    -1.496000000     1.686000000    -5.917000000
H    -1.243000000     1.388000000    -6.931000000
C    -1.202000000     2.943000000    -5.367000000
O    -0.459000000     3.932000000    -6.073000000
C     0.472000000     4.709000000    -5.446000000
C     1.606000000     4.175000000    -4.862000000
H     1.836000000     3.122000000    -4.998000000
C     0.235000000     6.133000000    -5.485000000
H    -0.665000000     6.656000000    -5.801000000
C     1.279000000     6.961000000    -5.095000000
H     1.308000000     8.046000000    -5.149000000
C     2.485000000     6.405000000    -4.684000000
H     3.238000000     7.116000000    -4.354000000
C     2.557000000     5.080000000    -4.498000000
O     3.740000000     4.549000000    -4.047000000
C     3.839000000     4.028000000    -2.790000000
C     4.983000000     3.361000000    -2.592000000
H     5.631000000     3.205000000    -3.451000000
C     5.199000000     2.661000000    -1.467000000
O     6.284000000     1.842000000    -1.235000000
C     6.536000000     1.035000000    -0.194000000
C     7.292000000     1.468000000     0.906000000
H     7.731000000     2.462000000     0.876000000
C     7.513000000     0.625000000     2.011000000
H     8.016000000     0.910000000     2.932000000
C     7.009000000    -0.739000000     2.008000000
H     7.224000000    -1.368000000     2.868000000
C     6.279000000    -1.102000000     0.939000000
C     6.038000000    -0.273000000    -0.157000000
H     5.349000000    -0.623000000    -0.921000000
C    -0.137000000    -1.846000000    -1.012000000
H    -0.814000000    -2.428000000    -1.631000000
C    -0.629000000    -0.830000000    -0.161000000
H    -1.661000000    -0.497000000    -0.088000000
C     0.291000000     0.055000000     0.367000000
H    -0.086000000     0.818000000     1.043000000
C     1.668000000    -0.149000000     0.178000000
H     2.391000000     0.565000000     0.564000000
C     2.104000000    -1.152000000    -0.612000000
H     3.183000000    -1.236000000    -0.722000000
C     1.191000000    -2.070000000    -1.207000000
C     1.736000000    -3.070000000    -2.202000000
O     2.932000000    -3.227000000    -2.271000000
O     0.908000000    -3.508000000    -2.976000000
O     1.171000000    -7.875000000    -4.115000000
H     0.485000000    -8.538000000    -4.196000000
H     0.718000000    -7.100000000    -3.783000000
O     5.875000000    -5.839000000    -1.881000000
H     4.956000000    -5.803000000    -2.146000000
H     6.103000000    -4.930000000    -1.683000000
O     0.633000000    -3.542000000    -6.449000000
H     0.554000000    -2.635000000    -6.152000000
H     1.243000000    -3.943000000    -5.829000000
O     2.669000000    -9.147000000    -1.917000000
H     3.060000000    -9.969000000    -2.212000000
H     2.270000000    -8.775000000    -2.704000000
O    -0.749000000    -6.949000000    -6.674000000
H    -1.518000000    -6.379000000    -6.647000000
H    -0.062000000    -6.445000000    -6.237000000
O     2.397000000    -6.885000000    -7.297000000
H     3.085000000    -6.377000000    -7.726000000
H     2.715000000    -7.011000000    -6.403000000
O     3.091000000    -0.377000000    -7.963000000
H     2.179000000    -0.280000000    -7.690000000
H     3.048000000    -0.904000000    -8.761000000
O     0.540000000    -0.333000000    -7.221000000
H    -0.202000000    -0.492000000    -7.805000000
H     0.180000000    -0.439000000    -6.341000000
O     2.924000000     0.560000000    -3.565000000
H     3.298000000     0.540000000    -4.445000000
H     3.543000000     0.061000000    -3.031000000
O     0.475000000    -1.338000000    -4.612000000
H     0.607000000    -2.043000000    -3.979000000
H     0.164000000    -0.600000000    -4.088000000
O     4.614000000    -2.947000000    -7.206000000
H     4.020000000    -2.718000000    -6.491000000
H     5.012000000    -2.115000000    -7.461000000
O     5.795000000    -3.260000000    -3.368000000
H     5.006000000    -2.728000000    -3.265000000
H     5.573000000    -3.885000000    -4.059000000
O     0.561000000    -3.186000000    -8.994000000
H     0.587000000    -4.098000000    -9.282000000
H     0.751000000    -3.225000000    -8.057000000
O     0.820000000     1.628000000    -2.083000000
H     1.579000000     1.479000000    -2.646000000
H     0.967000000     1.060000000    -1.327000000
O    -0.255000000    -5.689000000    -4.094000000
H     0.249000000    -5.079000000    -3.555000000
H    -1.161000000    -5.393000000    -4.006000000
O     3.314000000    -5.886000000    -2.433000000
H     2.721000000    -6.332000000    -1.827000000
H     3.002000000    -4.981000000    -2.450000000
O     3.143000000    -1.872000000    -4.998000000
H     2.311000000    -1.422000000    -4.855000000
H     3.164000000    -2.557000000    -4.329000000
O     6.188000000    -4.609000000    -5.807000000
H     5.834000000    -3.886000000    -6.325000000
H     7.061000000    -4.760000000    -6.171000000
O     3.952000000    -6.694000000    -5.141000000
H     3.563000000    -6.508000000    -4.287000000
H     4.606000000    -6.005000000    -5.261000000
