215
-1449.42918
C    -3.476000000    -3.532000000    -1.737000000
H    -4.201000000    -2.727000000    -1.837000000
C    -2.977000000    -3.864000000    -0.462000000
C    -2.075000000    -4.932000000    -0.250000000
H    -1.555000000    -5.133000000     0.683000000
C    -3.326000000    -2.908000000     0.614000000
O    -4.614000000    -2.191000000     0.602000000
H    -2.429000000    -2.273000000     0.584000000
O    -3.146000000    -3.484000000     1.973000000
C    -2.345000000    -2.738000000     2.795000000
C    -1.026000000    -3.143000000     2.994000000
H    -0.705000000    -4.097000000     2.585000000
C    -0.182000000    -2.401000000     3.755000000
O     1.117000000    -2.727000000     3.760000000
C    -0.655000000    -1.269000000     4.458000000
C     0.253000000    -0.468000000     5.359000000
H    -0.420000000    -0.041000000     6.106000000
C     1.010000000     0.591000000     4.621000000
C     0.422000000     1.907000000     4.540000000
H    -0.483000000     2.145000000     5.094000000
H     0.911000000    -1.088000000     5.972000000
C    -2.017000000    -1.029000000     4.397000000
H    -2.364000000    -0.220000000     5.035000000
C    -2.886000000    -1.661000000     3.530000000
C    -4.350000000    -1.216000000     3.373000000
H    -4.565000000    -0.711000000     4.317000000
H    -4.972000000    -2.105000000     3.247000000
C    -4.393000000    -0.306000000     2.202000000
C    -4.246000000     1.071000000     2.359000000
H    -4.078000000     1.562000000     3.314000000
C    -4.578000000    -0.863000000     0.904000000
C    -4.559000000     0.004000000    -0.197000000
H    -4.765000000    -0.440000000    -1.167000000
C    -4.327000000     1.348000000    -0.051000000
O    -4.340000000     2.137000000    -1.206000000
C    -3.026000000     2.608000000    -1.622000000
C    -2.867000000     2.554000000    -3.084000000
C    -2.066000000     3.489000000    -3.769000000
H    -1.668000000     4.354000000    -3.244000000
C    -3.350000000     1.442000000    -3.806000000
H    -3.936000000     0.686000000    -3.288000000
O    -2.846000000     3.968000000    -1.048000000
H    -2.226000000     1.917000000    -1.316000000
C    -4.252000000     1.906000000     1.230000000
C    -4.008000000     3.382000000     1.420000000
H    -4.454000000     3.817000000     2.317000000
H    -4.601000000     3.800000000     0.604000000
C    -2.610000000     3.775000000     1.305000000
C    -1.825000000     3.835000000     2.455000000
H    -2.257000000     3.714000000     3.445000000
C    -2.081000000     4.048000000     0.038000000
C    -0.713000000     4.186000000    -0.080000000
H    -0.285000000     4.262000000    -1.077000000
C     0.080000000     4.378000000     1.032000000
O     1.450000000     4.490000000     0.931000000
C     2.282000000     3.300000000     1.029000000
C     3.336000000     3.241000000    -0.061000000
C     2.913000000     3.525000000    -1.367000000
H     1.894000000     3.739000000    -1.679000000
C     4.658000000     2.907000000     0.068000000
H     4.998000000     2.786000000     1.093000000
O     2.957000000     3.324000000     2.286000000
H     1.598000000     2.438000000     1.029000000
C    -0.474000000     4.162000000     2.277000000
C     0.401000000     4.192000000     3.584000000
H    -0.180000000     4.694000000     4.361000000
H     1.155000000     4.917000000     3.270000000
C     1.098000000     2.907000000     3.820000000
C     2.361000000     2.543000000     3.228000000
C     2.889000000     1.281000000     3.446000000
H     3.875000000     1.011000000     3.077000000
C     2.179000000     0.328000000     4.125000000
O     2.600000000    -0.938000000     4.017000000
C     1.987000000    -1.826000000     3.083000000
H     1.423000000    -1.377000000     2.253000000
C     3.021000000    -2.589000000     2.418000000
C     2.654000000    -3.722000000     1.651000000
H     1.605000000    -4.008000000     1.683000000
C     4.325000000    -2.123000000     2.163000000
H     4.585000000    -1.222000000     2.713000000
C     5.250000000    -2.734000000     1.366000000
O     6.585000000    -2.167000000     1.180000000
C     4.929000000    -3.899000000     0.698000000
H     5.659000000    -4.368000000     0.043000000
C     3.586000000    -4.352000000     0.823000000
O     3.357000000    -5.587000000     0.265000000
C     2.204000000    -6.309000000     0.406000000
C     1.188000000    -6.183000000    -0.509000000
H     1.252000000    -5.436000000    -1.296000000
C     2.062000000    -7.264000000     1.372000000
H     2.962000000    -7.414000000     1.963000000
C     0.911000000    -8.036000000     1.448000000
H     0.818000000    -8.747000000     2.265000000
C    -0.083000000    -7.944000000     0.496000000
H    -0.952000000    -8.595000000     0.443000000
C    -0.010000000    -6.871000000    -0.352000000
O    -1.012000000    -6.804000000    -1.289000000
C    -1.805000000    -5.760000000    -1.420000000
C    -2.436000000    -5.531000000    -2.632000000
H    -2.184000000    -6.116000000    -3.513000000
C    -3.233000000    -4.388000000    -2.825000000
O    -3.673000000    -4.223000000    -4.120000000
C    -4.185000000    -2.977000000    -4.502000000
C    -3.487000000    -1.889000000    -5.051000000
H    -2.444000000    -1.994000000    -5.339000000
C    -5.614000000    -2.837000000    -4.407000000
H    -6.148000000    -3.707000000    -4.032000000
C    -6.294000000    -1.719000000    -4.821000000
H    -7.380000000    -1.760000000    -4.798000000
C    -5.607000000    -0.617000000    -5.270000000
H    -6.095000000     0.327000000    -5.499000000
C    -4.221000000    -0.730000000    -5.439000000
O    -3.544000000     0.325000000    -5.983000000
C    -3.169000000     1.395000000    -5.222000000
C    -2.330000000     2.329000000    -5.838000000
H    -2.211000000     2.262000000    -6.916000000
C    -1.777000000     3.355000000    -5.151000000
O    -0.937000000     4.260000000    -5.779000000
C     0.125000000     4.788000000    -5.059000000
C     1.296000000     4.092000000    -4.894000000
H     1.507000000     3.144000000    -5.381000000
C    -0.009000000     6.093000000    -4.574000000
H    -0.967000000     6.581000000    -4.734000000
C     1.038000000     6.588000000    -3.759000000
H     0.955000000     7.546000000    -3.253000000
C     2.120000000     5.757000000    -3.493000000
H     2.731000000     6.091000000    -2.658000000
C     2.249000000     4.521000000    -4.015000000
O     3.333000000     3.738000000    -3.726000000
C     3.748000000     3.395000000    -2.449000000
C     5.083000000     2.926000000    -2.267000000
H     5.661000000     2.743000000    -3.169000000
C     5.513000000     2.641000000    -0.985000000
O     6.759000000     2.181000000    -0.790000000
C     6.964000000     1.370000000     0.313000000
C     7.578000000     1.865000000     1.432000000
H     7.820000000     2.924000000     1.435000000
C     7.734000000     1.143000000     2.562000000
H     8.008000000     1.642000000     3.487000000
C     7.381000000    -0.239000000     2.543000000
H     7.505000000    -0.832000000     3.446000000
C     6.852000000    -0.801000000     1.344000000
C     6.577000000     0.025000000     0.268000000
H     6.249000000    -0.493000000    -0.630000000
C     0.291000000    -1.856000000    -1.334000000
H    -0.502000000    -2.417000000    -1.822000000
C    -0.190000000    -0.933000000    -0.418000000
H    -1.267000000    -0.828000000    -0.319000000
C     0.679000000     0.073000000     0.152000000
H     0.442000000     0.766000000     0.882000000
C     2.060000000    -0.047000000    -0.091000000
H     2.750000000     0.727000000     0.233000000
C     2.520000000    -1.075000000    -0.896000000
H     3.584000000    -1.247000000    -1.031000000
C     1.685000000    -1.950000000    -1.571000000
C     2.282000000    -2.951000000    -2.539000000
O     3.323000000    -2.754000000    -3.074000000
O     1.640000000    -3.884000000    -2.878000000
O     1.116000000    -6.288000000    -3.933000000
H     1.385000000    -5.524000000    -3.423000000
H     0.340000000    -5.996000000    -4.411000000
O    -2.111000000    -4.330000000    -6.794000000
H    -2.390000000    -3.657000000    -7.416000000
H    -1.347000000    -3.952000000    -6.359000000
O     0.483000000    -9.255000000    -3.228000000
H    -0.468000000    -9.148000000    -3.209000000
H     0.816000000    -8.398000000    -3.493000000
O     1.626000000    -6.035000000    -7.935000000
H     2.391000000    -5.609000000    -7.550000000
H     1.547000000    -5.644000000    -8.806000000
O     3.612000000    -1.798000000    -8.166000000
H     2.755000000    -1.678000000    -7.757000000
H     3.795000000    -2.733000000    -8.067000000
O     6.361000000     0.854000000    -5.293000000
H     6.227000000     0.523000000    -6.181000000
H     5.586000000     0.567000000    -4.811000000
O    -0.325000000    -0.883000000    -4.368000000
H     0.180000000    -0.072000000    -4.417000000
H    -0.494000000    -1.004000000    -3.433000000
O     3.985000000    -4.327000000    -7.194000000
H     3.909000000    -4.557000000    -6.268000000
H     4.768000000    -4.789000000    -7.492000000
O     4.355000000    -7.471000000    -1.542000000
H     3.715000000    -6.789000000    -1.341000000
H     5.168000000    -7.163000000    -1.141000000
O     5.831000000    -2.931000000    -2.652000000
H     4.875000000    -2.904000000    -2.622000000
H     6.060000000    -2.437000000    -3.439000000
O     1.206000000    -0.589000000    -6.841000000
H     0.576000000    -0.743000000    -6.138000000
H     1.078000000     0.330000000    -7.079000000
O     8.170000000    -3.809000000    -1.234000000
H     8.446000000    -3.196000000    -0.552000000
H     7.375000000    -3.421000000    -1.598000000
O     1.737000000     1.147000000    -3.773000000
H     2.405000000     1.572000000    -4.310000000
H     2.005000000     1.325000000    -2.872000000
O    -0.064000000    -3.506000000    -4.826000000
H     0.578000000    -3.828000000    -4.193000000
H    -0.061000000    -2.556000000    -4.707000000
O     3.536000000    -4.906000000    -4.724000000
H     2.686000000    -5.344000000    -4.663000000
H     3.509000000    -4.234000000    -4.043000000
O     3.962000000    -1.123000000    -5.134000000
H     3.218000000    -0.835000000    -5.662000000
H     3.568000000    -1.610000000    -4.410000000
O     6.078000000    -5.061000000    -5.569000000
H     6.634000000    -5.407000000    -4.872000000
H     5.184000000    -5.212000000    -5.260000000
O     6.190000000    -2.344000000    -6.455000000
H     5.385000000    -1.894000000    -6.195000000
H     6.063000000    -3.248000000    -6.167000000
O     7.593000000    -5.643000000    -3.505000000
H     7.101000000    -5.332000000    -2.746000000
H     8.491000000    -5.352000000    -3.345000000
