215
-1451.35066
C    -3.426000000    -3.396000000    -1.517000000
H    -4.054000000    -2.560000000    -1.815000000
C    -2.940000000    -3.554000000    -0.200000000
C    -2.252000000    -4.699000000     0.123000000
H    -2.031000000    -4.831000000     1.180000000
C    -3.248000000    -2.485000000     0.891000000
O    -4.607000000    -1.955000000     0.733000000
H    -2.541000000    -1.650000000     0.781000000
O    -3.084000000    -3.008000000     2.187000000
C    -2.419000000    -2.227000000     3.117000000
C    -1.112000000    -2.591000000     3.452000000
H    -0.626000000    -3.497000000     3.099000000
C    -0.308000000    -1.774000000     4.299000000
O     1.018000000    -2.162000000     4.413000000
C    -0.787000000    -0.532000000     4.759000000
C     0.025000000     0.375000000     5.614000000
H    -0.665000000     0.969000000     6.216000000
C     0.901000000     1.318000000     4.785000000
C     0.407000000     2.599000000     4.515000000
H    -0.538000000     2.986000000     4.888000000
H     0.555000000    -0.233000000     6.351000000
C    -2.078000000    -0.183000000     4.440000000
H    -2.467000000     0.812000000     4.641000000
C    -2.888000000    -1.034000000     3.649000000
C    -4.392000000    -0.704000000     3.378000000
H    -4.706000000    -0.217000000     4.303000000
H    -4.989000000    -1.618000000     3.388000000
C    -4.424000000     0.108000000     2.057000000
C    -4.346000000     1.496000000     2.055000000
H    -4.314000000     2.076000000     2.973000000
C    -4.610000000    -0.572000000     0.853000000
C    -4.646000000     0.072000000    -0.342000000
H    -4.894000000    -0.450000000    -1.263000000
C    -4.305000000     1.411000000    -0.397000000
O    -4.260000000     1.977000000    -1.644000000
C    -2.983000000     2.415000000    -2.165000000
C    -2.827000000     2.211000000    -3.664000000
C    -1.809000000     2.939000000    -4.357000000
H    -1.145000000     3.633000000    -3.848000000
C    -3.694000000     1.381000000    -4.384000000
H    -4.389000000     0.792000000    -3.791000000
O    -2.649000000     3.787000000    -1.761000000
H    -2.181000000     1.783000000    -1.757000000
C    -4.252000000     2.182000000     0.833000000
C    -4.100000000     3.695000000     0.790000000
H    -4.483000000     4.120000000     1.720000000
H    -4.637000000     4.071000000    -0.082000000
C    -2.580000000     3.984000000     0.623000000
C    -1.811000000     4.200000000     1.805000000
H    -2.362000000     4.223000000     2.742000000
C    -1.951000000     3.955000000    -0.600000000
C    -0.610000000     4.112000000    -0.753000000
H    -0.117000000     4.066000000    -1.721000000
C     0.131000000     4.347000000     0.405000000
O     1.471000000     4.435000000     0.169000000
C     2.309000000     3.324000000     0.647000000
C     3.407000000     2.989000000    -0.352000000
C     3.107000000     2.943000000    -1.707000000
H     2.123000000     3.301000000    -2.002000000
C     4.638000000     2.559000000    -0.006000000
H     4.843000000     2.443000000     1.055000000
O     2.811000000     3.588000000     1.988000000
H     1.627000000     2.462000000     0.624000000
C    -0.453000000     4.463000000     1.659000000
C     0.361000000     4.626000000     2.960000000
H    -0.384000000     4.972000000     3.680000000
H     1.147000000     5.367000000     2.799000000
C     0.958000000     3.330000000     3.484000000
C     2.152000000     2.856000000     2.902000000
C     2.773000000     1.724000000     3.384000000
H     3.773000000     1.453000000     3.052000000
C     2.099000000     0.897000000     4.225000000
O     2.556000000    -0.369000000     4.456000000
C     1.985000000    -1.429000000     3.649000000
H     1.437000000    -0.989000000     2.802000000
C     2.976000000    -2.378000000     2.993000000
C     2.586000000    -3.629000000     2.464000000
H     1.565000000    -3.902000000     2.721000000
C     4.308000000    -2.006000000     2.836000000
H     4.568000000    -1.004000000     3.168000000
C     5.220000000    -2.721000000     2.083000000
O     6.500000000    -2.342000000     1.808000000
C     4.723000000    -3.892000000     1.450000000
H     5.316000000    -4.450000000     0.731000000
C     3.430000000    -4.349000000     1.660000000
O     3.068000000    -5.520000000     0.987000000
C     1.979000000    -6.232000000     1.240000000
C     0.919000000    -6.096000000     0.334000000
H     0.985000000    -5.395000000    -0.494000000
C     1.900000000    -7.046000000     2.352000000
H     2.705000000    -7.052000000     3.082000000
C     0.703000000    -7.719000000     2.447000000
H     0.472000000    -8.314000000     3.327000000
C    -0.428000000    -7.552000000     1.595000000
H    -1.366000000    -8.066000000     1.788000000
C    -0.256000000    -6.793000000     0.474000000
O    -1.233000000    -6.754000000    -0.498000000
C    -2.008000000    -5.682000000    -0.836000000
C    -2.371000000    -5.486000000    -2.155000000
H    -2.071000000    -6.168000000    -2.946000000
C    -3.091000000    -4.300000000    -2.492000000
O    -3.350000000    -3.984000000    -3.813000000
C    -4.325000000    -3.104000000    -4.256000000
C    -3.783000000    -1.948000000    -4.906000000
H    -2.731000000    -1.813000000    -5.146000000
C    -5.702000000    -3.246000000    -4.144000000
H    -6.031000000    -4.160000000    -3.657000000
C    -6.548000000    -2.299000000    -4.743000000
H    -7.598000000    -2.572000000    -4.793000000
C    -6.050000000    -1.205000000    -5.374000000
H    -6.773000000    -0.656000000    -5.972000000
C    -4.686000000    -1.020000000    -5.462000000
O    -4.161000000    -0.029000000    -6.313000000
C    -3.485000000     1.059000000    -5.731000000
C    -2.521000000     1.740000000    -6.343000000
H    -2.210000000     1.465000000    -7.347000000
C    -1.620000000     2.630000000    -5.704000000
O    -0.522000000     3.010000000    -6.435000000
C     0.514000000     3.749000000    -5.783000000
C     1.543000000     2.981000000    -5.129000000
H     1.490000000     1.898000000    -5.204000000
C     0.514000000     5.094000000    -5.605000000
H    -0.314000000     5.731000000    -5.907000000
C     1.623000000     5.690000000    -4.857000000
H     1.570000000     6.766000000    -4.710000000
C     2.602000000     4.957000000    -4.208000000
H     3.348000000     5.388000000    -3.544000000
C     2.641000000     3.575000000    -4.475000000
O     3.749000000     2.816000000    -3.990000000
C     4.080000000     2.792000000    -2.689000000
C     5.365000000     2.448000000    -2.294000000
H     6.051000000     2.120000000    -3.070000000
C     5.622000000     2.272000000    -0.933000000
O     6.913000000     1.876000000    -0.559000000
C     7.195000000     1.015000000     0.450000000
C     7.976000000     1.575000000     1.496000000
H     8.399000000     2.567000000     1.356000000
C     8.327000000     0.865000000     2.609000000
H     8.935000000     1.327000000     3.383000000
C     7.862000000    -0.478000000     2.690000000
H     8.217000000    -1.114000000     3.497000000
C     6.967000000    -1.013000000     1.665000000
C     6.639000000    -0.295000000     0.559000000
H     5.953000000    -0.692000000    -0.185000000
C     0.648000000    -2.529000000    -1.789000000
H     0.385000000    -3.224000000    -2.582000000
C    -0.298000000    -1.674000000    -1.249000000
H    -1.353000000    -1.731000000    -1.506000000
C     0.118000000    -0.753000000    -0.236000000
H    -0.584000000    -0.078000000     0.256000000
C     1.440000000    -0.619000000     0.158000000
H     1.749000000     0.183000000     0.824000000
C     2.391000000    -1.496000000    -0.463000000
H     3.405000000    -1.485000000    -0.070000000
C     2.016000000    -2.523000000    -1.352000000
C     3.052000000    -3.437000000    -2.008000000
O     4.219000000    -3.356000000    -1.770000000
O     2.649000000    -4.162000000    -2.885000000
O     1.677000000    -6.639000000    -3.536000000
H     1.949000000    -5.836000000    -3.091000000
H     1.973000000    -6.524000000    -4.439000000
O    -1.050000000    -3.461000000    -6.290000000
H    -0.698000000    -2.889000000    -6.972000000
H    -0.359000000    -3.500000000    -5.629000000
O     0.666000000    -9.106000000    -3.482000000
H     0.984000000    -8.217000000    -3.322000000
H     1.384000000    -9.537000000    -3.946000000
O     6.186000000    -6.868000000    -1.604000000
H     6.495000000    -6.289000000    -0.908000000
H     6.934000000    -6.952000000    -2.196000000
O     6.967000000     0.510000000    -5.115000000
H     7.130000000     0.510000000    -6.059000000
H     6.058000000     0.225000000    -5.029000000
O     0.388000000    -0.376000000    -5.042000000
H     0.181000000     0.213000000    -4.316000000
H    -0.446000000    -0.506000000    -5.490000000
O     4.023000000    -5.500000000    -6.804000000
H     4.730000000    -5.654000000    -6.177000000
H     4.427000000    -4.977000000    -7.497000000
O     5.478000000    -7.693000000     2.603000000
H     6.231000000    -8.229000000     2.356000000
H     5.014000000    -7.538000000     1.781000000
O     6.765000000    -2.585000000    -2.066000000
H     5.899000000    -2.990000000    -2.034000000
H     6.656000000    -1.832000000    -2.647000000
O     2.852000000    -0.146000000    -5.214000000
H     1.898000000    -0.088000000    -5.252000000
H     3.109000000    -0.459000000    -6.081000000
O     0.509000000     1.028000000    -2.522000000
H     1.431000000     1.021000000    -2.265000000
H     0.121000000     0.297000000    -2.041000000
O     1.439000000    -3.203000000    -5.022000000
H     1.822000000    -3.800000000    -4.379000000
H     1.364000000    -2.368000000    -4.560000000
O     4.633000000    -6.059000000    -3.744000000
H     4.824000000    -6.453000000    -2.893000000
H     4.158000000    -5.255000000    -3.535000000
O     4.624000000    -2.202000000    -4.418000000
H     4.020000000    -1.460000000    -4.410000000
H     4.290000000    -2.790000000    -3.741000000
O     2.751000000    -9.693000000    -1.018000000
H     2.852000000    -9.148000000    -1.799000000
H     2.476000000    -9.082000000    -0.334000000
O     6.700000000    -6.068000000    -5.312000000
H     6.939000000    -5.157000000    -5.139000000
H     5.887000000    -6.200000000    -4.825000000
O     6.664000000    -2.964000000    -6.027000000
H     5.919000000    -2.755000000    -5.463000000
H     7.432000000    -2.791000000    -5.482000000
O     1.369000000    -5.993000000    -6.699000000
H     2.326000000    -5.989000000    -6.691000000
H     1.126000000    -5.067000000    -6.687000000
O     9.131000000    -4.044000000    -2.208000000
H     9.328000000    -4.370000000    -1.330000000
H     8.314000000    -3.557000000    -2.104000000
