215
-1462.31436
C    -3.643000000    -3.864000000    -0.464000000
H    -4.152000000    -3.037000000    -0.952000000
C    -3.151000000    -3.761000000     0.797000000
C    -2.487000000    -4.872000000     1.307000000
H    -1.875000000    -4.737000000     2.195000000
C    -3.265000000    -2.477000000     1.527000000
O    -4.598000000    -1.806000000     1.207000000
H    -2.434000000    -1.867000000     1.144000000
O    -3.222000000    -2.595000000     2.951000000
C    -2.457000000    -1.689000000     3.677000000
C    -1.152000000    -2.089000000     3.972000000
H    -0.852000000    -3.068000000     3.609000000
C    -0.245000000    -1.205000000     4.560000000
O     1.090000000    -1.558000000     4.570000000
C    -0.702000000     0.115000000     4.939000000
C     0.281000000     1.148000000     5.467000000
H    -0.284000000     1.732000000     6.197000000
C     0.941000000     1.946000000     4.338000000
C     0.412000000     3.134000000     3.860000000
H    -0.531000000     3.471000000     4.283000000
H     1.020000000     0.685000000     6.124000000
C    -2.079000000     0.426000000     4.613000000
H    -2.469000000     1.396000000     4.909000000
C    -2.975000000    -0.467000000     3.970000000
C    -4.351000000     0.008000000     3.484000000
H    -4.594000000     0.794000000     4.201000000
H    -5.147000000    -0.734000000     3.580000000
C    -4.449000000     0.497000000     2.030000000
C    -4.288000000     1.772000000     1.760000000
H    -4.014000000     2.502000000     2.518000000
C    -4.650000000    -0.453000000     1.032000000
C    -4.663000000    -0.039000000    -0.262000000
H    -4.695000000    -0.790000000    -1.047000000
C    -4.504000000     1.300000000    -0.563000000
O    -4.353000000     1.565000000    -1.949000000
C    -3.007000000     1.938000000    -2.311000000
C    -2.446000000     1.287000000    -3.590000000
C    -1.623000000     1.988000000    -4.451000000
H    -1.264000000     2.994000000    -4.253000000
C    -2.751000000    -0.048000000    -3.905000000
H    -3.339000000    -0.571000000    -3.155000000
O    -2.733000000     3.402000000    -2.237000000
H    -2.345000000     1.504000000    -1.547000000
C    -4.352000000     2.259000000     0.460000000
C    -4.081000000     3.732000000     0.246000000
H    -4.496000000     4.280000000     1.094000000
H    -4.524000000     4.185000000    -0.644000000
C    -2.616000000     3.954000000     0.145000000
C    -1.909000000     4.457000000     1.240000000
H    -2.259000000     4.404000000     2.268000000
C    -1.953000000     3.745000000    -1.114000000
C    -0.616000000     3.966000000    -1.255000000
H    -0.085000000     3.755000000    -2.180000000
C     0.063000000     4.564000000    -0.169000000
O     1.379000000     4.876000000    -0.460000000
C     2.264000000     3.772000000    -0.112000000
C     3.332000000     3.539000000    -1.135000000
C     3.179000000     3.896000000    -2.494000000
H     2.305000000     4.459000000    -2.810000000
C     4.485000000     2.857000000    -0.810000000
H     4.643000000     2.391000000     0.159000000
O     2.812000000     3.956000000     1.224000000
H     1.707000000     2.824000000    -0.067000000
C    -0.527000000     4.729000000     1.104000000
C     0.373000000     5.104000000     2.305000000
H    -0.234000000     5.459000000     3.141000000
H     0.999000000     5.955000000     2.029000000
C     1.035000000     3.866000000     2.830000000
C     2.244000000     3.387000000     2.286000000
C     2.779000000     2.162000000     2.778000000
H     3.627000000     1.737000000     2.248000000
C     2.169000000     1.530000000     3.867000000
O     2.575000000     0.315000000     4.146000000
C     1.894000000    -0.892000000     3.618000000
H     1.320000000    -0.546000000     2.746000000
C     2.828000000    -1.891000000     2.962000000
C     2.441000000    -3.246000000     2.718000000
H     1.403000000    -3.511000000     2.899000000
C     4.099000000    -1.521000000     2.604000000
H     4.409000000    -0.490000000     2.755000000
C     5.051000000    -2.396000000     2.154000000
O     6.360000000    -1.945000000     1.834000000
C     4.681000000    -3.717000000     1.944000000
H     5.384000000    -4.467000000     1.593000000
C     3.367000000    -4.157000000     2.200000000
O     3.051000000    -5.469000000     1.809000000
C     1.915000000    -6.163000000     2.177000000
C     0.739000000    -6.110000000     1.442000000
H     0.587000000    -5.538000000     0.530000000
C     1.963000000    -6.816000000     3.419000000
H     2.847000000    -6.821000000     4.051000000
C     0.856000000    -7.558000000     3.835000000
H     0.863000000    -8.146000000     4.749000000
C    -0.319000000    -7.575000000     3.058000000
H    -1.148000000    -8.251000000     3.255000000
C    -0.330000000    -6.918000000     1.862000000
O    -1.476000000    -7.032000000     1.084000000
C    -2.169000000    -5.988000000     0.516000000
C    -2.776000000    -6.131000000    -0.739000000
H    -2.569000000    -6.935000000    -1.441000000
C    -3.540000000    -5.081000000    -1.192000000
O    -4.187000000    -5.297000000    -2.390000000
C    -4.471000000    -4.318000000    -3.315000000
C    -3.458000000    -3.583000000    -3.922000000
H    -2.406000000    -3.677000000    -3.663000000
C    -5.773000000    -4.108000000    -3.733000000
H    -6.568000000    -4.659000000    -3.238000000
C    -6.049000000    -2.994000000    -4.590000000
H    -7.097000000    -2.767000000    -4.771000000
C    -5.015000000    -2.288000000    -5.235000000
H    -5.218000000    -1.503000000    -5.960000000
C    -3.730000000    -2.603000000    -4.855000000
O    -2.674000000    -1.915000000    -5.383000000
C    -2.311000000    -0.636000000    -5.055000000
C    -1.557000000     0.096000000    -5.931000000
H    -1.362000000    -0.387000000    -6.885000000
C    -1.155000000     1.365000000    -5.652000000
O    -0.312000000     1.992000000    -6.531000000
C     0.511000000     3.097000000    -6.125000000
C     1.761000000     2.911000000    -5.539000000
H     2.097000000     1.905000000    -5.302000000
C     0.050000000     4.371000000    -6.437000000
H    -0.897000000     4.555000000    -6.939000000
C     0.861000000     5.463000000    -6.103000000
H     0.512000000     6.472000000    -6.308000000
C     2.096000000     5.287000000    -5.544000000
H     2.789000000     6.106000000    -5.370000000
C     2.587000000     3.994000000    -5.313000000
O     3.894000000     3.780000000    -4.790000000
C     4.088000000     3.456000000    -3.451000000
C     5.221000000     2.776000000    -3.102000000
H     5.911000000     2.406000000    -3.857000000
C     5.403000000     2.515000000    -1.766000000
O     6.356000000     1.582000000    -1.518000000
C     6.702000000     1.079000000    -0.215000000
C     7.365000000     1.928000000     0.597000000
H     7.633000000     2.900000000     0.192000000
C     7.792000000     1.481000000     1.897000000
H     8.365000000     2.088000000     2.593000000
C     7.365000000     0.208000000     2.340000000
H     7.771000000    -0.162000000     3.278000000
C     6.593000000    -0.610000000     1.462000000
C     6.424000000    -0.178000000     0.138000000
H     6.039000000    -0.793000000    -0.672000000
C    -0.462000000    -1.702000000    -1.185000000
H    -1.216000000    -2.263000000    -1.731000000
C    -0.733000000    -0.542000000    -0.465000000
H    -1.756000000    -0.187000000    -0.378000000
C     0.253000000     0.137000000     0.188000000
H    -0.091000000     1.097000000     0.739000000
C     1.567000000    -0.314000000     0.151000000
H     2.385000000     0.224000000     0.624000000
C     1.889000000    -1.455000000    -0.684000000
H     2.911000000    -1.750000000    -0.909000000
C     0.816000000    -2.187000000    -1.300000000
C     1.194000000    -3.599000000    -1.849000000
O     2.335000000    -3.971000000    -2.015000000
O     0.338000000    -4.292000000    -2.482000000
O     0.646000000    -7.034000000    -1.787000000
H     0.555000000    -6.084000000    -1.855000000
H     1.591000000    -7.182000000    -1.749000000
O    -2.468000000    -4.712000000    -7.222000000
H    -2.866000000    -5.578000000    -7.313000000
H    -1.969000000    -4.762000000    -6.407000000
O     5.771000000    -1.024000000    -4.216000000
H     5.817000000    -1.118000000    -5.167000000
H     4.846000000    -1.156000000    -4.006000000
O     2.243000000    -0.990000000    -7.102000000
H     1.895000000    -1.237000000    -7.959000000
H     2.924000000    -0.346000000    -7.297000000
O    -0.864000000    -9.357000000    -1.442000000
H    -0.468000000    -8.491000000    -1.537000000
H    -1.358000000    -9.306000000    -0.623000000
O     6.921000000    -3.436000000    -1.141000000
H     7.207000000    -3.833000000    -0.318000000
H     7.535000000    -2.716000000    -1.286000000
O     6.253000000    -7.607000000     0.149000000
H     6.084000000    -6.869000000    -0.437000000
H     5.528000000    -8.211000000    -0.010000000
O     3.817000000    -8.729000000     0.250000000
H     3.413000000    -7.969000000    -0.169000000
H     3.205000000    -9.447000000     0.085000000
O    -0.836000000    -5.307000000    -5.034000000
H    -0.392000000    -4.867000000    -4.309000000
H    -0.135000000    -5.754000000    -5.508000000
O     3.475000000    -5.876000000    -7.261000000
H     4.315000000    -6.311000000    -7.117000000
H     3.402000000    -5.250000000    -6.541000000
O     4.521000000    -2.600000000    -6.242000000
H     4.303000000    -2.868000000    -5.349000000
H     3.823000000    -1.994000000    -6.487000000
O     0.437000000    -2.387000000    -5.215000000
H    -0.487000000    -2.245000000    -5.424000000
H     0.887000000    -1.634000000    -5.598000000
O     2.150000000    -4.546000000    -4.631000000
H     1.563000000    -3.835000000    -4.888000000
H     2.132000000    -4.538000000    -3.674000000
O    -1.798000000    -7.838000000    -4.450000000
H    -1.648000000    -6.897000000    -4.541000000
H    -1.781000000    -7.993000000    -3.505000000
O     4.200000000    -6.896000000    -4.626000000
H     3.836000000    -7.740000000    -4.358000000
H     3.486000000    -6.273000000    -4.493000000
O     3.248000000    -1.660000000    -3.955000000
H     2.550000000    -1.019000000    -3.822000000
H     3.004000000    -2.399000000    -3.399000000
O     3.290000000    -6.529000000    -1.535000000
H     4.135000000    -6.455000000    -1.980000000
H     2.891000000    -5.664000000    -1.634000000
O     5.929000000    -5.950000000    -1.974000000
H     6.243000000    -5.071000000    -1.760000000
H     6.314000000    -6.139000000    -2.830000000
O     1.090000000    -6.860000000    -6.576000000
H     1.439000000    -7.697000000    -6.270000000
H     1.862000000    -6.362000000    -6.844000000
