215
-1452.49890
C     4.206000000    -2.633000000    -0.228000000
H     3.487000000    -3.440000000    -0.112000000
C     4.386000000    -1.691000000     0.759000000
C     5.195000000    -0.615000000     0.437000000
H     5.334000000     0.146000000     1.200000000
C     3.461000000    -1.700000000     2.002000000
O     3.129000000    -3.045000000     2.446000000
H     2.556000000    -1.216000000     1.607000000
O     3.873000000    -0.915000000     3.063000000
C     2.980000000    -0.180000000     3.727000000
C     2.990000000     1.192000000     3.449000000
H     3.798000000     1.605000000     2.849000000
C     1.999000000     2.032000000     3.886000000
O     2.051000000     3.230000000     3.293000000
C     0.978000000     1.614000000     4.748000000
C    -0.170000000     2.593000000     5.194000000
H    -0.529000000     2.288000000     6.179000000
C    -1.258000000     2.594000000     4.146000000
C    -2.317000000     1.706000000     4.267000000
H    -2.480000000     1.051000000     5.119000000
H     0.203000000     3.608000000     5.344000000
C     1.009000000     0.265000000     5.157000000
H     0.189000000    -0.042000000     5.802000000
C     1.923000000    -0.651000000     4.598000000
C     1.821000000    -2.131000000     4.907000000
H     1.400000000    -2.273000000     5.905000000
H     2.856000000    -2.478000000     4.925000000
C     1.070000000    -2.961000000     3.861000000
C    -0.334000000    -3.248000000     4.021000000
H    -0.908000000    -3.034000000     4.919000000
C     1.751000000    -3.383000000     2.662000000
C     1.055000000    -3.914000000     1.611000000
H     1.573000000    -4.084000000     0.671000000
C    -0.358000000    -4.127000000     1.767000000
O    -1.009000000    -4.723000000     0.753000000
C    -1.659000000    -3.836000000    -0.229000000
C    -1.445000000    -4.315000000    -1.661000000
C    -2.357000000    -3.810000000    -2.654000000
H    -3.238000000    -3.235000000    -2.382000000
C    -0.392000000    -5.119000000    -2.001000000
H     0.298000000    -5.575000000    -1.296000000
O    -3.077000000    -3.832000000     0.186000000
H    -1.326000000    -2.793000000    -0.122000000
C    -1.059000000    -3.781000000     2.963000000
C    -2.588000000    -3.828000000     3.027000000
H    -2.887000000    -3.834000000     4.077000000
H    -2.944000000    -4.790000000     2.654000000
C    -3.240000000    -2.766000000     2.297000000
C    -3.688000000    -1.636000000     3.005000000
H    -3.523000000    -1.764000000     4.071000000
C    -3.475000000    -2.729000000     0.938000000
C    -4.054000000    -1.703000000     0.256000000
H    -4.180000000    -1.642000000    -0.822000000
C    -4.426000000    -0.549000000     0.997000000
O    -4.941000000     0.515000000     0.350000000
C    -4.080000000     1.592000000     0.027000000
C    -4.374000000     2.053000000    -1.404000000
C    -4.624000000     1.089000000    -2.414000000
H    -4.817000000     0.049000000    -2.163000000
C    -4.231000000     3.365000000    -1.715000000
H    -3.962000000     4.122000000    -0.983000000
O    -4.111000000     2.560000000     1.036000000
H    -3.064000000     1.175000000    -0.046000000
C    -4.198000000    -0.487000000     2.376000000
C    -4.533000000     0.701000000     3.263000000
H    -4.750000000     0.365000000     4.280000000
H    -5.495000000     1.101000000     2.937000000
C    -3.289000000     1.667000000     3.198000000
C    -3.207000000     2.532000000     2.074000000
C    -2.169000000     3.414000000     2.103000000
H    -2.014000000     4.097000000     1.271000000
C    -1.146000000     3.432000000     3.033000000
O    -0.023000000     4.232000000     2.731000000
C     1.081000000     3.489000000     2.264000000
H     0.676000000     2.534000000     1.897000000
C     1.673000000     4.209000000     1.080000000
C     3.009000000     4.526000000     1.016000000
H     3.584000000     4.445000000     1.934000000
C     0.943000000     4.471000000    -0.091000000
H    -0.106000000     4.200000000    -0.187000000
C     1.562000000     4.939000000    -1.273000000
O     0.772000000     5.304000000    -2.387000000
C     2.944000000     5.082000000    -1.365000000
H     3.454000000     5.308000000    -2.298000000
C     3.664000000     4.871000000    -0.203000000
O     5.026000000     4.984000000    -0.351000000
C     5.967000000     4.034000000    -0.145000000
C     5.733000000     2.703000000    -0.606000000
H     4.813000000     2.477000000    -1.138000000
C     7.144000000     4.422000000     0.479000000
H     7.247000000     5.483000000     0.695000000
C     8.130000000     3.483000000     0.683000000
H     9.110000000     3.864000000     0.957000000
C     7.983000000     2.211000000     0.132000000
H     8.795000000     1.489000000     0.097000000
C     6.780000000     1.827000000    -0.459000000
O     6.635000000     0.635000000    -1.066000000
C     5.832000000    -0.468000000    -0.766000000
C     5.717000000    -1.438000000    -1.698000000
H     6.295000000    -1.362000000    -2.615000000
C     4.861000000    -2.466000000    -1.430000000
O     4.561000000    -3.281000000    -2.473000000
C     4.048000000    -4.578000000    -2.411000000
C     2.748000000    -4.698000000    -2.842000000
H     2.258000000    -3.835000000    -3.286000000
C     4.731000000    -5.701000000    -1.972000000
H     5.794000000    -5.589000000    -1.776000000
C     4.051000000    -6.931000000    -1.915000000
H     4.615000000    -7.796000000    -1.574000000
C     2.818000000    -7.051000000    -2.547000000
H     2.471000000    -8.080000000    -2.593000000
C     2.139000000    -5.928000000    -3.017000000
O     0.933000000    -5.970000000    -3.723000000
C    -0.189000000    -5.309000000    -3.357000000
C    -1.098000000    -4.985000000    -4.351000000
H    -0.854000000    -5.153000000    -5.397000000
C    -2.198000000    -4.174000000    -3.998000000
O    -3.144000000    -3.887000000    -4.971000000
C    -4.178000000    -2.985000000    -4.770000000
C    -3.971000000    -1.566000000    -4.852000000
H    -2.975000000    -1.160000000    -5.007000000
C    -5.459000000    -3.472000000    -4.395000000
H    -5.613000000    -4.532000000    -4.207000000
C    -6.553000000    -2.554000000    -4.390000000
H    -7.561000000    -2.855000000    -4.115000000
C    -6.287000000    -1.192000000    -4.393000000
H    -7.175000000    -0.596000000    -4.199000000
C    -5.005000000    -0.715000000    -4.606000000
O    -4.700000000     0.597000000    -4.826000000
C    -4.570000000     1.471000000    -3.757000000
C    -4.434000000     2.833000000    -4.078000000
H    -4.543000000     3.209000000    -5.091000000
C    -4.262000000     3.734000000    -3.033000000
O    -3.989000000     5.019000000    -3.361000000
C    -2.944000000     5.639000000    -2.748000000
C    -3.219000000     6.743000000    -1.954000000
H    -4.254000000     7.057000000    -1.847000000
C    -2.165000000     7.407000000    -1.369000000
H    -2.333000000     8.250000000    -0.705000000
C    -0.814000000     6.974000000    -1.548000000
H    -0.072000000     7.502000000    -0.955000000
C    -0.507000000     5.849000000    -2.295000000
C    -1.592000000     5.216000000    -2.992000000
H    -1.451000000     4.383000000    -3.676000000
C    -0.144000000    -0.541000000    -2.107000000
H    -0.941000000    -0.748000000    -2.816000000
C    -0.518000000    -0.034000000    -0.864000000
H    -1.501000000    -0.187000000    -0.426000000
C     0.459000000     0.332000000     0.072000000
H     0.299000000     0.471000000     1.123000000
C     1.844000000     0.278000000    -0.353000000
H     2.678000000     0.622000000     0.253000000
C     2.154000000    -0.085000000    -1.656000000
H     3.190000000    -0.146000000    -1.980000000
C     1.163000000    -0.511000000    -2.556000000
C     1.489000000    -0.923000000    -3.976000000
O     2.459000000    -0.481000000    -4.471000000
O     0.689000000    -1.486000000    -4.688000000
O    -1.035000000     4.211000000    -6.481000000
H    -1.836000000     3.688000000    -6.428000000
H    -0.331000000     3.590000000    -6.294000000
O     4.409000000    -1.763000000    -6.112000000
H     3.981000000    -1.651000000    -5.263000000
H     3.732000000    -1.545000000    -6.752000000
O     5.017000000    -4.962000000    -7.846000000
H     5.507000000    -4.162000000    -7.656000000
H     5.166000000    -5.521000000    -7.083000000
O     6.846000000     2.004000000    -7.343000000
H     6.219000000     2.046000000    -8.064000000
H     6.632000000     1.191000000    -6.886000000
O     1.418000000     3.171000000    -8.200000000
H     1.906000000     3.632000000    -8.883000000
H     1.351000000     2.271000000    -8.520000000
O     2.807000000     2.459000000    -4.228000000
H     2.520000000     1.652000000    -4.655000000
H     1.998000000     2.947000000    -4.071000000
O     6.339000000     0.123000000    -5.292000000
H     5.662000000    -0.322000000    -5.802000000
H     5.855000000     0.622000000    -4.635000000
O     2.185000000     5.201000000    -6.785000000
H     3.115000000     4.994000000    -6.687000000
H     1.772000000     4.361000000    -6.985000000
O     5.562000000     2.581000000    -3.700000000
H     4.609000000     2.495000000    -3.731000000
H     5.713000000     3.517000000    -3.565000000
O     7.505000000    -4.326000000    -3.952000000
H     6.553000000    -4.227000000    -3.925000000
H     7.835000000    -3.435000000    -4.067000000
O     1.927000000    -3.691000000    -5.859000000
H     2.635000000    -3.800000000    -5.224000000
H     1.342000000    -3.048000000    -5.459000000
O     6.692000000    -2.856000000    -7.314000000
H     6.130000000    -2.499000000    -6.625000000
H     6.272000000    -2.584000000    -8.130000000
O     2.392000000     0.777000000    -9.543000000
H     1.838000000     0.280000000   -10.145000000
H     2.319000000     0.310000000    -8.710000000
O     2.029000000    -0.802000000    -7.299000000
H     1.238000000    -1.263000000    -7.577000000
H     1.922000000    -0.691000000    -6.354000000
O     8.198000000    -1.584000000    -4.213000000
H     8.395000000    -1.180000000    -3.368000000
H     7.563000000    -0.994000000    -4.618000000
O     2.586000000    -5.789000000    -7.810000000
H     1.997000000    -5.107000000    -7.487000000
H     3.463000000    -5.453000000    -7.629000000
O    -2.101000000    -2.987000000    -8.303000000
H    -2.649000000    -2.204000000    -8.360000000
H    -2.699000000    -3.678000000    -8.017000000
O    -0.568000000    -1.065000000    -7.259000000
H    -0.310000000    -1.237000000    -6.353000000
H    -1.122000000    -1.809000000    -7.496000000
O     5.137000000     1.063000000    -9.417000000
H     4.238000000     0.866000000    -9.153000000
H     5.045000000     1.718000000   -10.109000000
