215
-1440.01334
C    -4.001000000    -3.870000000    -0.086000000
H    -4.882000000    -3.234000000    -0.090000000
C    -3.001000000    -3.715000000     0.834000000
C    -1.933000000    -4.658000000     0.732000000
H    -1.113000000    -4.563000000     1.439000000
C    -3.019000000    -2.589000000     1.806000000
O    -4.342000000    -2.058000000     1.923000000
H    -2.277000000    -1.818000000     1.552000000
O    -2.583000000    -3.026000000     3.141000000
C    -1.813000000    -2.081000000     3.885000000
C    -0.523000000    -2.548000000     3.831000000
H    -0.200000000    -3.407000000     3.247000000
C     0.437000000    -1.679000000     4.334000000
O     1.750000000    -2.049000000     4.032000000
C     0.149000000    -0.376000000     4.759000000
C     1.180000000     0.558000000     5.270000000
H     0.603000000     1.014000000     6.077000000
C     1.673000000     1.531000000     4.239000000
C     1.024000000     2.714000000     3.967000000
H     0.167000000     3.037000000     4.553000000
H     2.059000000     0.018000000     5.628000000
C    -1.194000000     0.069000000     4.844000000
H    -1.388000000     1.097000000     5.139000000
C    -2.155000000    -0.786000000     4.376000000
C    -3.644000000    -0.438000000     4.335000000
H    -3.933000000     0.364000000     5.017000000
H    -4.320000000    -1.268000000     4.552000000
C    -3.956000000     0.102000000     2.940000000
C    -3.684000000     1.467000000     2.788000000
H    -3.280000000     2.090000000     3.583000000
C    -4.363000000    -0.676000000     1.814000000
C    -4.531000000    -0.024000000     0.615000000
H    -4.863000000    -0.629000000    -0.224000000
C    -4.275000000     1.291000000     0.418000000
O    -4.382000000     1.893000000    -0.805000000
C    -3.104000000     2.235000000    -1.444000000
C    -2.991000000     1.708000000    -2.872000000
C    -2.081000000     2.244000000    -3.839000000
H    -1.561000000     3.176000000    -3.633000000
C    -3.532000000     0.488000000    -3.102000000
H    -3.954000000    -0.100000000    -2.291000000
O    -2.860000000     3.585000000    -1.320000000
H    -2.374000000     1.587000000    -0.937000000
C    -3.897000000     2.021000000     1.531000000
C    -3.789000000     3.578000000     1.437000000
H    -3.856000000     3.792000000     2.506000000
H    -4.591000000     4.100000000     0.909000000
C    -2.401000000     4.002000000     1.039000000
C    -1.425000000     4.318000000     1.977000000
H    -1.681000000     4.245000000     3.030000000
C    -2.061000000     4.094000000    -0.340000000
C    -0.769000000     4.463000000    -0.756000000
H    -0.489000000     4.418000000    -1.805000000
C     0.159000000     4.813000000     0.204000000
O     1.476000000     4.964000000    -0.192000000
C     2.300000000     3.733000000    -0.117000000
C     3.144000000     3.510000000    -1.325000000
C     2.667000000     3.857000000    -2.601000000
H     1.629000000     4.080000000    -2.838000000
C     4.488000000     3.224000000    -1.098000000
H     4.958000000     3.103000000    -0.125000000
O     3.039000000     3.707000000     1.092000000
H     1.581000000     2.900000000    -0.109000000
C    -0.122000000     4.691000000     1.585000000
C     0.926000000     4.843000000     2.729000000
H     0.456000000     5.322000000     3.591000000
H     1.673000000     5.563000000     2.388000000
C     1.565000000     3.507000000     2.958000000
C     2.562000000     3.003000000     2.097000000
C     3.165000000     1.783000000     2.385000000
H     4.061000000     1.448000000     1.870000000
C     2.722000000     1.020000000     3.462000000
O     3.297000000    -0.237000000     3.697000000
C     2.543000000    -1.303000000     3.078000000
H     1.872000000    -0.864000000     2.325000000
C     3.432000000    -2.287000000     2.363000000
C     3.119000000    -3.667000000     2.234000000
H     2.241000000    -4.030000000     2.762000000
C     4.433000000    -1.766000000     1.613000000
H     4.714000000    -0.716000000     1.623000000
C     5.092000000    -2.544000000     0.673000000
O     5.938000000    -1.967000000    -0.223000000
C     4.730000000    -3.847000000     0.436000000
H     5.189000000    -4.409000000    -0.373000000
C     3.846000000    -4.459000000     1.320000000
O     3.584000000    -5.766000000     1.059000000
C     2.377000000    -6.348000000     1.322000000
C     1.352000000    -6.140000000     0.434000000
H     1.573000000    -5.535000000    -0.442000000
C     2.203000000    -7.184000000     2.376000000
H     3.049000000    -7.372000000     3.032000000
C     0.937000000    -7.762000000     2.612000000
H     0.831000000    -8.557000000     3.345000000
C    -0.057000000    -7.616000000     1.615000000
H    -1.031000000    -8.080000000     1.745000000
C     0.080000000    -6.735000000     0.592000000
O    -0.932000000    -6.623000000    -0.285000000
C    -1.919000000    -5.596000000    -0.300000000
C    -2.987000000    -5.738000000    -1.247000000
H    -3.035000000    -6.598000000    -1.911000000
C    -4.053000000    -4.858000000    -1.091000000
O    -5.118000000    -4.915000000    -1.951000000
C    -5.586000000    -3.700000000    -2.414000000
C    -4.721000000    -2.983000000    -3.379000000
H    -3.749000000    -3.382000000    -3.659000000
C    -6.836000000    -3.193000000    -2.126000000
H    -7.509000000    -3.621000000    -1.388000000
C    -7.190000000    -1.952000000    -2.757000000
H    -8.116000000    -1.514000000    -2.394000000
C    -6.368000000    -1.257000000    -3.649000000
H    -6.576000000    -0.275000000    -4.067000000
C    -5.157000000    -1.832000000    -3.928000000
O    -4.258000000    -1.188000000    -4.770000000
C    -3.524000000    -0.049000000    -4.410000000
C    -2.785000000     0.581000000    -5.463000000
H    -2.685000000     0.094000000    -6.429000000
C    -2.050000000     1.675000000    -5.118000000
O    -1.235000000     2.279000000    -6.097000000
C    -0.380000000     3.310000000    -5.923000000
C     0.954000000     3.064000000    -5.591000000
H     1.320000000     2.044000000    -5.520000000
C    -0.811000000     4.586000000    -6.255000000
H    -1.797000000     4.716000000    -6.693000000
C     0.094000000     5.658000000    -6.170000000
H    -0.321000000     6.627000000    -6.435000000
C     1.426000000     5.437000000    -5.813000000
H     2.134000000     6.262000000    -5.817000000
C     1.840000000     4.110000000    -5.494000000
O     3.133000000     3.870000000    -5.034000000
C     3.466000000     3.571000000    -3.759000000
C     4.721000000     3.022000000    -3.504000000
H     5.366000000     2.701000000    -4.317000000
C     5.180000000     2.931000000    -2.214000000
O     6.473000000     2.399000000    -2.038000000
C     6.739000000     1.430000000    -1.072000000
C     7.855000000     1.664000000    -0.209000000
H     8.507000000     2.519000000    -0.369000000
C     8.235000000     0.688000000     0.722000000
H     9.159000000     0.878000000     1.262000000
C     7.488000000    -0.510000000     0.771000000
H     7.812000000    -1.209000000     1.538000000
C     6.420000000    -0.732000000    -0.099000000
C     6.149000000     0.184000000    -1.069000000
H     5.472000000    -0.121000000    -1.863000000
C    -0.184000000    -1.499000000    -1.685000000
H    -1.066000000    -1.986000000    -2.094000000
C    -0.533000000    -0.487000000    -0.721000000
H    -1.594000000    -0.271000000    -0.622000000
C     0.415000000     0.205000000    -0.012000000
H     0.076000000     0.918000000     0.713000000
C     1.735000000     0.040000000    -0.325000000
H     2.503000000     0.701000000     0.069000000
C     2.041000000    -0.957000000    -1.254000000
H     3.080000000    -1.086000000    -1.548000000
C     1.113000000    -1.764000000    -1.903000000
C     1.492000000    -2.699000000    -2.948000000
O     2.472000000    -2.422000000    -3.620000000
O     0.661000000    -3.589000000    -3.305000000
O     0.976000000    -6.251000000    -2.859000000
H     0.789000000    -5.324000000    -3.006000000
H     0.186000000    -6.591000000    -2.439000000
O    -4.095000000    -4.377000000    -6.780000000
H    -4.529000000    -4.925000000    -6.126000000
H    -3.161000000    -4.512000000    -6.623000000
O     0.529000000    -1.673000000    -6.319000000
H     0.983000000    -1.589000000    -5.480000000
H    -0.110000000    -2.371000000    -6.177000000
O     1.436000000     0.449000000    -8.201000000
H     1.598000000     0.003000000    -9.032000000
H     1.292000000    -0.260000000    -7.573000000
O     5.315000000     0.840000000    -6.858000000
H     4.913000000     0.262000000    -6.209000000
H     6.149000000     0.420000000    -7.069000000
O     2.895000000    -7.810000000    -1.565000000
H     2.454000000    -7.136000000    -2.082000000
H     2.191000000    -8.387000000    -1.272000000
O     4.785000000    -8.464000000    -5.324000000
H     4.470000000    -8.827000000    -4.496000000
H     4.387000000    -7.595000000    -5.371000000
O     6.443000000    -6.255000000    -2.138000000
H     5.748000000    -5.633000000    -2.350000000
H     6.110000000    -6.739000000    -1.383000000
O     4.600000000    -2.721000000    -7.276000000
H     3.725000000    -3.022000000    -7.029000000
H     4.813000000    -2.048000000    -6.630000000
O    -0.977000000    -4.063000000    -5.233000000
H    -1.504000000    -4.813000000    -4.957000000
H    -0.481000000    -3.819000000    -4.451000000
O     0.584000000    -8.371000000    -4.663000000
H     0.036000000    -8.839000000    -4.033000000
H     0.852000000    -7.575000000    -4.203000000
O     2.215000000    -3.996000000    -5.688000000
H     1.343000000    -3.829000000    -6.046000000
H     2.253000000    -3.466000000    -4.892000000
O    -2.359000000    -6.467000000    -4.743000000
H    -3.103000000    -6.777000000    -4.227000000
H    -2.038000000    -7.248000000    -5.193000000
O     3.730000000    -6.138000000    -5.301000000
H     2.954000000    -5.641000000    -5.558000000
H     4.261000000    -5.514000000    -4.805000000
O     4.069000000    -0.645000000    -4.907000000
H     3.311000000    -1.147000000    -4.611000000
H     4.784000000    -0.931000000    -4.338000000
O     4.620000000    -4.231000000    -3.281000000
H     5.330000000    -3.895000000    -3.828000000
H     3.900000000    -3.616000000    -3.419000000
O     4.724000000    -5.235000000    -8.691000000
H     4.878000000    -4.550000000    -8.040000000
H     5.293000000    -5.955000000    -8.420000000
O     6.223000000    -1.717000000    -3.578000000
H     6.791000000    -2.332000000    -4.043000000
H     6.689000000    -1.531000000    -2.763000000
O     5.199000000    -7.798000000    -0.303000000
H     5.235000000    -8.755000000    -0.324000000
H     4.300000000    -7.586000000    -0.554000000
