215
-1472.94965
C    -3.472000000    -3.859000000    -0.281000000
H    -4.046000000    -3.030000000    -0.686000000
C    -2.980000000    -3.847000000     0.985000000
C    -2.111000000    -4.901000000     1.413000000
H    -1.618000000    -4.800000000     2.376000000
C    -3.090000000    -2.519000000     1.728000000
O    -4.416000000    -1.968000000     1.512000000
H    -2.363000000    -1.810000000     1.305000000
O    -2.743000000    -2.687000000     3.157000000
C    -1.959000000    -1.739000000     3.803000000
C    -0.654000000    -2.030000000     3.917000000
H    -0.222000000    -2.998000000     3.676000000
C     0.159000000    -1.016000000     4.361000000
O     1.484000000    -1.276000000     4.553000000
C    -0.317000000     0.258000000     4.674000000
C     0.540000000     1.392000000     5.313000000
H    -0.123000000     1.979000000     5.953000000
C     1.230000000     2.249000000     4.180000000
C     0.776000000     3.505000000     3.801000000
H    -0.142000000     3.931000000     4.197000000
H     1.302000000     1.049000000     6.015000000
C    -1.709000000     0.459000000     4.560000000
H    -2.107000000     1.439000000     4.812000000
C    -2.573000000    -0.489000000     4.098000000
C    -4.092000000    -0.101000000     3.883000000
H    -4.395000000     0.697000000     4.565000000
H    -4.678000000    -1.015000000     4.004000000
C    -4.290000000     0.404000000     2.409000000
C    -4.189000000     1.801000000     2.190000000
H    -3.939000000     2.509000000     2.976000000
C    -4.431000000    -0.540000000     1.356000000
C    -4.460000000    -0.016000000     0.072000000
H    -4.601000000    -0.750000000    -0.717000000
C    -4.339000000     1.386000000    -0.169000000
O    -4.297000000     1.821000000    -1.456000000
C    -3.083000000     1.999000000    -2.115000000
C    -3.055000000     1.313000000    -3.421000000
C    -2.032000000     1.668000000    -4.260000000
H    -1.344000000     2.448000000    -3.946000000
C    -3.878000000     0.293000000    -3.778000000
H    -4.485000000    -0.214000000    -3.033000000
O    -2.887000000     3.475000000    -2.067000000
H    -2.228000000     1.620000000    -1.536000000
C    -4.207000000     2.233000000     0.920000000
C    -4.059000000     3.734000000     0.676000000
H    -4.359000000     4.351000000     1.526000000
H    -4.865000000     4.024000000    -0.001000000
C    -2.653000000     4.124000000     0.271000000
C    -1.705000000     4.486000000     1.219000000
H    -1.933000000     4.572000000     2.278000000
C    -2.141000000     4.011000000    -1.024000000
C    -0.849000000     4.340000000    -1.353000000
H    -0.456000000     4.153000000    -2.349000000
C     0.078000000     4.680000000    -0.377000000
O     1.396000000     4.754000000    -0.767000000
C     2.254000000     3.720000000    -0.250000000
C     3.241000000     3.316000000    -1.365000000
C     2.792000000     3.016000000    -2.688000000
H     1.724000000     3.065000000    -2.886000000
C     4.598000000     3.213000000    -1.094000000
H     4.922000000     3.333000000    -0.063000000
O     2.932000000     4.160000000     0.934000000
H     1.714000000     2.783000000    -0.044000000
C    -0.360000000     4.800000000     0.914000000
C     0.579000000     5.269000000     2.025000000
H    -0.008000000     5.798000000     2.779000000
H     1.244000000     6.076000000     1.712000000
C     1.275000000     4.082000000     2.641000000
C     2.413000000     3.641000000     2.124000000
C     3.023000000     2.440000000     2.635000000
H     3.970000000     2.117000000     2.211000000
C     2.359000000     1.735000000     3.637000000
O     2.926000000     0.536000000     3.938000000
C     2.314000000    -0.742000000     3.561000000
H     1.680000000    -0.528000000     2.688000000
C     3.335000000    -1.765000000     3.033000000
C     2.992000000    -3.138000000     2.946000000
H     2.092000000    -3.497000000     3.440000000
C     4.408000000    -1.304000000     2.207000000
H     4.692000000    -0.256000000     2.245000000
C     5.062000000    -2.153000000     1.264000000
O     6.065000000    -1.714000000     0.368000000
C     4.684000000    -3.510000000     1.307000000
H     5.171000000    -4.284000000     0.720000000
C     3.589000000    -3.946000000     2.039000000
O     3.370000000    -5.339000000     1.954000000
C     2.165000000    -5.937000000     2.332000000
C     1.028000000    -5.958000000     1.558000000
H     0.945000000    -5.348000000     0.662000000
C     2.122000000    -6.665000000     3.499000000
H     2.999000000    -6.687000000     4.140000000
C     1.137000000    -7.620000000     3.776000000
H     1.229000000    -8.357000000     4.569000000
C     0.076000000    -7.758000000     2.824000000
H    -0.735000000    -8.442000000     3.061000000
C    -0.063000000    -6.831000000     1.823000000
O    -1.078000000    -7.005000000     0.922000000
C    -1.824000000    -5.921000000     0.510000000
C    -2.267000000    -5.861000000    -0.800000000
H    -1.987000000    -6.608000000    -1.538000000
C    -3.081000000    -4.818000000    -1.219000000
O    -3.498000000    -4.869000000    -2.561000000
C    -4.459000000    -4.013000000    -3.095000000
C    -4.144000000    -3.038000000    -4.078000000
H    -3.114000000    -2.881000000    -4.387000000
C    -5.805000000    -4.240000000    -2.706000000
H    -6.208000000    -4.894000000    -1.937000000
C    -6.752000000    -3.387000000    -3.248000000
H    -7.769000000    -3.445000000    -2.868000000
C    -6.477000000    -2.364000000    -4.160000000
H    -7.323000000    -1.721000000    -4.388000000
C    -5.130000000    -2.239000000    -4.571000000
O    -4.708000000    -1.225000000    -5.418000000
C    -3.851000000    -0.251000000    -5.092000000
C    -2.991000000     0.283000000    -6.045000000
H    -2.946000000    -0.145000000    -7.043000000
C    -2.024000000     1.194000000    -5.599000000
O    -0.887000000     1.337000000    -6.398000000
C     0.012000000     2.356000000    -6.179000000
C     1.279000000     1.973000000    -5.778000000
H     1.625000000     0.948000000    -5.674000000
C    -0.317000000     3.718000000    -6.361000000
H    -1.327000000     4.053000000    -6.582000000
C     0.699000000     4.655000000    -6.130000000
H     0.436000000     5.710000000    -6.141000000
C     1.912000000     4.287000000    -5.615000000
H     2.691000000     5.020000000    -5.422000000
C     2.253000000     2.923000000    -5.541000000
O     3.455000000     2.477000000    -4.970000000
C     3.757000000     2.582000000    -3.646000000
C     5.083000000     2.569000000    -3.312000000
H     5.818000000     2.359000000    -4.084000000
C     5.541000000     2.781000000    -2.014000000
O     6.856000000     2.491000000    -1.647000000
C     7.103000000     1.617000000    -0.655000000
C     7.920000000     1.981000000     0.443000000
H     8.416000000     2.945000000     0.521000000
C     8.051000000     1.141000000     1.540000000
H     8.704000000     1.446000000     2.353000000
C     7.454000000    -0.102000000     1.519000000
H     7.497000000    -0.751000000     2.390000000
C     6.634000000    -0.474000000     0.421000000
C     6.480000000     0.409000000    -0.685000000
H     5.911000000     0.095000000    -1.556000000
C     0.227000000    -1.702000000    -0.198000000
H    -0.586000000    -2.380000000    -0.445000000
C    -0.058000000    -0.545000000     0.549000000
H    -1.092000000    -0.398000000     0.851000000
C     0.894000000     0.447000000     0.736000000
H     0.651000000     1.387000000     1.280000000
C     2.188000000     0.222000000     0.251000000
H     2.950000000     0.943000000     0.534000000
C     2.479000000    -0.851000000    -0.540000000
H     3.490000000    -0.885000000    -0.937000000
C     1.534000000    -1.870000000    -0.745000000
C     1.898000000    -2.994000000    -1.698000000
O     3.027000000    -3.094000000    -2.162000000
O     0.984000000    -3.751000000    -2.003000000
O     3.496000000    -5.788000000    -6.485000000
H     2.739000000    -5.282000000    -6.191000000
H     4.238000000    -5.192000000    -6.378000000
O     0.399000000    -6.227000000    -2.226000000
H     0.503000000    -5.301000000    -2.008000000
H     1.236000000    -6.476000000    -2.617000000
O     1.898000000    -1.693000000    -5.198000000
H     1.043000000    -1.580000000    -4.783000000
H     2.280000000    -2.452000000    -4.757000000
O     7.454000000     0.334000000    -4.329000000
H     7.457000000     0.245000000    -5.282000000
H     6.952000000    -0.421000000    -4.020000000
O     1.027000000    -8.342000000    -0.506000000
H     0.739000000    -7.688000000    -1.142000000
H     0.221000000    -8.632000000    -0.079000000
O     2.835000000    -2.075000000    -7.827000000
H     2.211000000    -1.633000000    -7.251000000
H     3.632000000    -2.150000000    -7.303000000
O     4.441000000    -0.801000000    -5.214000000
H     3.489000000    -0.894000000    -5.180000000
H     4.746000000    -1.149000000    -4.376000000
O     3.639000000    -8.300000000     0.273000000
H     3.683000000    -8.909000000     1.010000000
H     2.720000000    -8.315000000     0.005000000
O     5.828000000    -6.753000000     0.367000000
H     5.596000000    -6.229000000    -0.400000000
H     5.026000000    -7.229000000     0.583000000
O    -0.776000000    -7.476000000    -4.831000000
H    -0.272000000    -7.412000000    -4.020000000
H    -0.300000000    -6.928000000    -5.454000000
O    -0.058000000    -5.079000000    -6.486000000
H    -0.805000000    -4.481000000    -6.472000000
H     0.509000000    -4.740000000    -7.179000000
O     4.903000000    -3.819000000    -5.183000000
H     4.018000000    -4.048000000    -4.901000000
H     5.248000000    -3.276000000    -4.474000000
O    -0.268000000    -1.873000000    -3.686000000
H    -1.030000000    -1.317000000    -3.521000000
H    -0.392000000    -2.625000000    -3.107000000
O     2.568000000    -9.024000000    -4.293000000
H     2.004000000    -9.568000000    -3.743000000
H     2.749000000    -8.250000000    -3.760000000
O     1.979000000    -4.587000000    -4.638000000
H     1.138000000    -4.713000000    -5.078000000
H     1.749000000    -4.256000000    -3.770000000
O     3.021000000    -6.636000000    -2.958000000
H     3.346000000    -5.974000000    -3.569000000
H     3.520000000    -6.486000000    -2.156000000
O     5.612000000    -1.927000000    -3.085000000
H     4.818000000    -2.182000000    -2.616000000
H     6.326000000    -2.158000000    -2.491000000
O     5.154000000    -4.834000000    -1.756000000
H     5.950000000    -4.345000000    -1.961000000
H     4.441000000    -4.259000000    -2.033000000
O     7.376000000    -3.377000000    -1.730000000
H     8.326000000    -3.409000000    -1.839000000
H     7.241000000    -2.817000000    -0.966000000
