215
-1476.74725
C    -3.252000000    -3.739000000     0.619000000
H    -4.104000000    -3.071000000     0.525000000
C    -2.410000000    -3.568000000     1.735000000
C    -1.435000000    -4.476000000     1.999000000
H    -0.641000000    -4.211000000     2.693000000
C    -2.469000000    -2.220000000     2.463000000
O    -3.793000000    -1.675000000     2.503000000
H    -1.940000000    -1.508000000     1.812000000
O    -1.861000000    -2.391000000     3.802000000
C    -1.021000000    -1.355000000     4.234000000
C     0.382000000    -1.523000000     4.310000000
H     0.754000000    -2.433000000     3.846000000
C     1.311000000    -0.512000000     4.623000000
O     2.639000000    -0.779000000     4.474000000
C     0.810000000     0.804000000     4.880000000
C     1.818000000     2.017000000     5.062000000
H     1.313000000     2.764000000     5.679000000
C     2.231000000     2.640000000     3.668000000
C     1.400000000     3.665000000     3.192000000
H     0.551000000     4.057000000     3.745000000
H     2.714000000     1.681000000     5.588000000
C    -0.607000000     0.937000000     4.894000000
H    -0.999000000     1.902000000     5.208000000
C    -1.573000000    -0.048000000     4.538000000
C    -3.037000000     0.211000000     4.551000000
H    -3.272000000     0.984000000     5.286000000
H    -3.675000000    -0.635000000     4.814000000
C    -3.550000000     0.701000000     3.133000000
C    -3.630000000     2.020000000     2.729000000
H    -3.332000000     2.804000000     3.420000000
C    -3.967000000    -0.321000000     2.207000000
C    -4.511000000     0.007000000     0.957000000
H    -4.955000000    -0.660000000     0.222000000
C    -4.588000000     1.384000000     0.630000000
O    -4.905000000     1.763000000    -0.628000000
C    -3.747000000     1.855000000    -1.494000000
C    -3.908000000     1.133000000    -2.847000000
C    -3.153000000     1.520000000    -3.923000000
H    -2.479000000     2.371000000    -3.882000000
C    -4.760000000     0.049000000    -2.972000000
H    -5.360000000    -0.304000000    -2.137000000
O    -3.489000000     3.249000000    -1.749000000
H    -2.893000000     1.455000000    -0.927000000
C    -4.052000000     2.381000000     1.464000000
C    -4.038000000     3.834000000     0.976000000
H    -4.137000000     4.469000000     1.859000000
H    -4.863000000     4.170000000     0.343000000
C    -2.705000000     4.155000000     0.310000000
C    -1.646000000     4.658000000     1.096000000
H    -1.778000000     4.923000000     2.142000000
C    -2.470000000     3.721000000    -0.973000000
C    -1.215000000     3.858000000    -1.525000000
H    -0.917000000     3.730000000    -2.563000000
C    -0.145000000     4.243000000    -0.723000000
O     0.992000000     4.403000000    -1.409000000
C     1.998000000     3.436000000    -1.051000000
C     2.670000000     2.787000000    -2.238000000
C     1.912000000     2.216000000    -3.246000000
H     0.830000000     2.227000000    -3.144000000
C     4.061000000     2.746000000    -2.483000000
H     4.696000000     3.154000000    -1.701000000
O     2.899000000     4.066000000    -0.142000000
H     1.525000000     2.560000000    -0.584000000
C    -0.353000000     4.739000000     0.586000000
C     0.794000000     5.255000000     1.367000000
H     0.496000000     5.969000000     2.138000000
H     1.392000000     5.897000000     0.717000000
C     1.730000000     4.151000000     1.955000000
C     2.753000000     3.612000000     1.188000000
C     3.563000000     2.586000000     1.669000000
H     4.374000000     2.190000000     1.064000000
C     3.204000000     2.030000000     2.883000000
O     3.836000000     0.895000000     3.315000000
C     3.150000000    -0.317000000     3.183000000
H     2.323000000    -0.137000000     2.479000000
C     4.057000000    -1.362000000     2.538000000
C     3.931000000    -2.712000000     2.885000000
H     3.317000000    -3.067000000     3.710000000
C     4.801000000    -1.001000000     1.489000000
H     4.955000000     0.048000000     1.246000000
C     5.476000000    -1.988000000     0.763000000
O     6.281000000    -1.655000000    -0.348000000
C     5.217000000    -3.384000000     0.943000000
H     5.534000000    -4.151000000     0.241000000
C     4.422000000    -3.732000000     2.049000000
O     4.248000000    -5.029000000     2.372000000
C     3.072000000    -5.595000000     2.718000000
C     2.068000000    -5.827000000     1.752000000
H     2.271000000    -5.486000000     0.740000000
C     2.939000000    -6.056000000     4.031000000
H     3.765000000    -5.882000000     4.716000000
C     1.732000000    -6.600000000     4.445000000
H     1.543000000    -6.825000000     5.491000000
C     0.646000000    -6.781000000     3.536000000
H    -0.347000000    -7.048000000     3.887000000
C     0.829000000    -6.411000000     2.199000000
O    -0.294000000    -6.532000000     1.340000000
C    -1.355000000    -5.663000000     1.248000000
C    -2.297000000    -5.951000000     0.248000000
H    -2.152000000    -6.826000000    -0.381000000
C    -3.199000000    -4.954000000    -0.123000000
O    -3.945000000    -5.137000000    -1.242000000
C    -4.977000000    -4.307000000    -1.665000000
C    -4.704000000    -3.425000000    -2.689000000
H    -3.721000000    -3.470000000    -3.150000000
C    -6.243000000    -4.378000000    -1.124000000
H    -6.473000000    -5.149000000    -0.394000000
C    -7.235000000    -3.531000000    -1.603000000
H    -8.274000000    -3.535000000    -1.285000000
C    -6.981000000    -2.697000000    -2.699000000
H    -7.803000000    -2.145000000    -3.148000000
C    -5.718000000    -2.652000000    -3.219000000
O    -5.495000000    -1.843000000    -4.299000000
C    -4.811000000    -0.644000000    -4.149000000
C    -4.225000000    -0.169000000    -5.312000000
H    -4.415000000    -0.688000000    -6.248000000
C    -3.353000000     0.908000000    -5.204000000
O    -2.893000000     1.335000000    -6.452000000
C    -1.624000000     1.966000000    -6.520000000
C    -0.554000000     1.285000000    -6.081000000
H    -0.728000000     0.295000000    -5.666000000
C    -1.471000000     3.272000000    -7.041000000
H    -2.313000000     3.774000000    -7.511000000
C    -0.194000000     3.823000000    -7.056000000
H     0.018000000     4.790000000    -7.505000000
C     0.909000000     3.087000000    -6.579000000
H     1.916000000     3.496000000    -6.540000000
C     0.752000000     1.812000000    -6.008000000
O     1.749000000     1.075000000    -5.389000000
C     2.503000000     1.594000000    -4.382000000
C     3.910000000     1.387000000    -4.484000000
H     4.451000000     0.859000000    -5.265000000
C     4.631000000     2.075000000    -3.505000000
O     5.990000000     1.978000000    -3.373000000
C     6.584000000     1.420000000    -2.270000000
C     7.427000000     2.192000000    -1.436000000
H     7.657000000     3.232000000    -1.656000000
C     7.924000000     1.644000000    -0.289000000
H     8.696000000     2.116000000     0.313000000
C     7.583000000     0.355000000     0.071000000
H     7.959000000    -0.038000000     1.013000000
C     6.706000000    -0.363000000    -0.690000000
C     6.205000000     0.149000000    -1.843000000
H     5.599000000    -0.426000000    -2.538000000
C     1.685000000    -1.060000000    -1.117000000
H     2.567000000    -1.282000000    -1.711000000
C     1.732000000    -0.213000000    -0.004000000
H     2.661000000     0.256000000     0.308000000
C     0.578000000     0.333000000     0.575000000
H     0.807000000     1.066000000     1.369000000
C    -0.694000000    -0.062000000     0.053000000
H    -1.621000000     0.396000000     0.388000000
C    -0.765000000    -1.025000000    -0.995000000
H    -1.675000000    -1.444000000    -1.416000000
C     0.415000000    -1.513000000    -1.617000000
C     0.356000000    -2.447000000    -2.806000000
O    -0.733000000    -2.670000000    -3.411000000
O     1.392000000    -2.946000000    -3.176000000
O    -1.728000000    -5.094000000    -6.799000000
H    -1.027000000    -5.128000000    -6.147000000
H    -2.373000000    -4.493000000    -6.425000000
O     2.499000000    -2.147000000    -9.476000000
H     3.165000000    -2.625000000    -9.970000000
H     2.745000000    -2.270000000    -8.559000000
O     4.656000000    -6.081000000    -5.009000000
H     4.889000000    -5.955000000    -5.929000000
H     4.262000000    -5.250000000    -4.746000000
O     7.323000000    -4.285000000    -1.799000000
H     6.429000000    -4.623000000    -1.843000000
H     7.706000000    -4.718000000    -1.036000000
O     1.295000000    -7.793000000    -0.631000000
H     1.562000000    -7.008000000    -1.109000000
H     0.681000000    -7.474000000     0.030000000
O     4.460000000    -8.174000000    -3.290000000
H     4.395000000    -7.524000000    -3.989000000
H     5.288000000    -8.625000000    -3.457000000
O    -0.689000000    -2.183000000    -6.002000000
H    -0.110000000    -2.918000000    -6.202000000
H    -0.759000000    -2.185000000    -5.047000000
O     4.937000000    -5.901000000    -1.759000000
H     4.922000000    -6.727000000    -2.243000000
H     4.183000000    -5.415000000    -2.093000000
O     1.172000000    -4.206000000    -5.325000000
H     1.006000000    -3.764000000    -4.492000000
H     1.082000000    -5.138000000    -5.123000000
O    -3.623000000    -3.762000000    -5.503000000
H    -4.551000000    -3.969000000    -5.618000000
H    -3.615000000    -2.847000000    -5.221000000
O     5.498000000    -2.294000000    -7.501000000
H     5.561000000    -3.247000000    -7.576000000
H     4.918000000    -2.151000000    -6.754000000
O     2.660000000    -2.023000000    -6.284000000
H     2.726000000    -1.446000000    -5.523000000
H     2.283000000    -2.832000000    -5.940000000
O     0.697000000    -7.054000000    -3.929000000
H     1.031000000    -7.594000000    -4.645000000
H    -0.144000000    -7.451000000    -3.702000000
O    -1.839000000    -0.990000000    -8.042000000
H    -1.341000000    -1.407000000    -7.339000000
H    -1.903000000    -0.072000000    -7.778000000
O    -1.528000000    -5.162000000    -3.225000000
H    -1.310000000    -4.376000000    -3.726000000
H    -1.915000000    -4.830000000    -2.414000000
O     3.946000000    -3.462000000    -3.922000000
H     4.384000000    -2.616000000    -4.014000000
H     3.048000000    -3.241000000    -3.674000000
O     1.943000000    -5.389000000    -2.058000000
H     1.659000000    -5.903000000    -2.814000000
H     1.873000000    -4.479000000    -2.348000000
O    -4.133000000    -6.819000000    -4.079000000
H    -3.445000000    -6.460000000    -3.519000000
H    -3.995000000    -6.399000000    -4.928000000
O     3.006000000     1.031000000    -7.852000000
H     2.864000000     0.305000000    -8.460000000
H     2.574000000     0.755000000    -7.044000000
