215
-1465.19639
C    -3.944000000    -3.698000000    -0.165000000
H    -4.876000000    -3.145000000    -0.075000000
C    -2.993000000    -3.269000000     0.767000000
C    -1.678000000    -3.705000000     0.546000000
H    -0.796000000    -3.415000000     1.111000000
C    -3.239000000    -2.118000000     1.746000000
O    -4.554000000    -1.665000000     1.768000000
H    -2.532000000    -1.344000000     1.414000000
O    -2.668000000    -2.401000000     3.063000000
C    -2.004000000    -1.481000000     3.821000000
C    -0.667000000    -1.784000000     4.011000000
H    -0.294000000    -2.776000000     3.770000000
C     0.188000000    -0.825000000     4.494000000
O     1.506000000    -1.227000000     4.500000000
C    -0.296000000     0.448000000     4.847000000
C     0.685000000     1.480000000     5.453000000
H     0.275000000     2.299000000     6.049000000
C     1.403000000     2.205000000     4.311000000
C     0.784000000     3.270000000     3.738000000
H    -0.210000000     3.537000000     4.089000000
H     1.351000000     0.871000000     6.068000000
C    -1.665000000     0.696000000     4.710000000
H    -1.979000000     1.722000000     4.888000000
C    -2.545000000    -0.236000000     4.168000000
C    -4.057000000     0.112000000     3.984000000
H    -4.370000000     0.785000000     4.785000000
H    -4.705000000    -0.725000000     4.252000000
C    -4.395000000     0.592000000     2.594000000
C    -4.248000000     1.973000000     2.274000000
H    -3.977000000     2.668000000     3.065000000
C    -4.760000000    -0.314000000     1.605000000
C    -4.990000000     0.095000000     0.286000000
H    -5.078000000    -0.716000000    -0.431000000
C    -4.723000000     1.442000000    -0.010000000
O    -4.756000000     1.763000000    -1.312000000
C    -3.496000000     2.010000000    -1.901000000
C    -3.587000000     1.463000000    -3.350000000
C    -2.788000000     2.039000000    -4.281000000
H    -2.210000000     2.914000000    -3.996000000
C    -4.195000000     0.287000000    -3.633000000
H    -4.646000000    -0.245000000    -2.798000000
O    -3.165000000     3.354000000    -1.906000000
H    -2.642000000     1.614000000    -1.332000000
C    -4.396000000     2.342000000     0.961000000
C    -4.142000000     3.793000000     0.574000000
H    -4.388000000     4.520000000     1.350000000
H    -4.878000000     4.101000000    -0.171000000
C    -2.638000000     4.031000000     0.286000000
C    -1.716000000     4.398000000     1.298000000
H    -2.117000000     4.745000000     2.246000000
C    -2.242000000     3.787000000    -1.011000000
C    -0.892000000     3.873000000    -1.363000000
H    -0.702000000     3.728000000    -2.424000000
C     0.061000000     4.255000000    -0.389000000
O     1.377000000     4.118000000    -0.783000000
C     2.186000000     3.028000000    -0.192000000
C     3.131000000     2.446000000    -1.347000000
C     2.491000000     1.798000000    -2.409000000
H     1.405000000     1.821000000    -2.454000000
C     4.469000000     2.148000000    -1.107000000
H     4.942000000     2.504000000    -0.196000000
O     3.012000000     3.652000000     0.804000000
H     1.599000000     2.290000000     0.375000000
C    -0.372000000     4.517000000     0.913000000
C     0.661000000     4.982000000     1.932000000
H     0.242000000     5.563000000     2.756000000
H     1.435000000     5.645000000     1.539000000
C     1.372000000     3.832000000     2.593000000
C     2.619000000     3.387000000     2.129000000
C     3.190000000     2.231000000     2.661000000
H     4.077000000     1.777000000     2.226000000
C     2.623000000     1.678000000     3.804000000
O     3.088000000     0.457000000     4.276000000
C     2.465000000    -0.586000000     3.572000000
H     1.903000000    -0.222000000     2.699000000
C     3.602000000    -1.518000000     3.142000000
C     3.386000000    -2.841000000     2.807000000
H     2.366000000    -3.186000000     2.956000000
C     4.961000000    -1.057000000     3.060000000
H     5.204000000    -0.013000000     3.243000000
C     5.887000000    -1.812000000     2.389000000
O     7.080000000    -1.237000000     2.242000000
C     5.496000000    -2.995000000     1.717000000
H     6.206000000    -3.553000000     1.113000000
C     4.278000000    -3.567000000     2.074000000
O     3.949000000    -4.720000000     1.501000000
C     2.706000000    -5.293000000     1.547000000
C     1.830000000    -5.271000000     0.462000000
H     2.156000000    -4.749000000    -0.434000000
C     2.332000000    -5.947000000     2.695000000
H     3.182000000    -6.019000000     3.370000000
C     1.067000000    -6.387000000     2.971000000
H     0.809000000    -6.842000000     3.924000000
C     0.140000000    -6.293000000     1.908000000
H    -0.890000000    -6.615000000     2.039000000
C     0.508000000    -5.737000000     0.691000000
O    -0.337000000    -5.555000000    -0.352000000
C    -1.455000000    -4.796000000    -0.331000000
C    -2.480000000    -5.202000000    -1.220000000
H    -2.321000000    -6.013000000    -1.927000000
C    -3.765000000    -4.676000000    -1.075000000
O    -4.722000000    -5.062000000    -1.917000000
C    -5.387000000    -4.060000000    -2.624000000
C    -4.617000000    -3.231000000    -3.483000000
H    -3.545000000    -3.380000000    -3.585000000
C    -6.738000000    -3.836000000    -2.438000000
H    -7.276000000    -4.334000000    -1.635000000
C    -7.406000000    -2.881000000    -3.187000000
H    -8.484000000    -2.742000000    -3.191000000
C    -6.634000000    -2.115000000    -4.078000000
H    -7.154000000    -1.488000000    -4.798000000
C    -5.241000000    -2.270000000    -4.254000000
O    -4.539000000    -1.528000000    -5.201000000
C    -4.048000000    -0.286000000    -4.935000000
C    -3.290000000     0.344000000    -5.906000000
H    -3.089000000    -0.059000000    -6.896000000
C    -2.493000000     1.405000000    -5.490000000
O    -1.607000000     2.031000000    -6.351000000
C    -0.286000000     2.167000000    -6.052000000
C     0.472000000     1.190000000    -5.377000000
H     0.011000000     0.284000000    -4.991000000
C     0.341000000     3.238000000    -6.672000000
H    -0.296000000     3.936000000    -7.209000000
C     1.722000000     3.428000000    -6.515000000
H     2.265000000     4.226000000    -7.014000000
C     2.489000000     2.497000000    -5.769000000
H     3.547000000     2.709000000    -5.634000000
C     1.809000000     1.444000000    -5.118000000
O     2.599000000     0.579000000    -4.444000000
C     3.175000000     1.087000000    -3.323000000
C     4.520000000     0.877000000    -3.112000000
H     5.074000000     0.281000000    -3.834000000
C     5.134000000     1.318000000    -1.972000000
O     6.512000000     1.065000000    -1.846000000
C     7.073000000     0.936000000    -0.637000000
C     8.111000000     1.852000000    -0.345000000
H     8.333000000     2.686000000    -1.006000000
C     8.717000000     1.744000000     0.907000000
H     9.552000000     2.383000000     1.184000000
C     8.346000000     0.710000000     1.787000000
H     8.955000000     0.486000000     2.659000000
C     7.319000000    -0.214000000     1.443000000
C     6.656000000    -0.058000000     0.223000000
H     5.840000000    -0.724000000    -0.043000000
C     1.257000000    -1.739000000    -1.477000000
H     2.097000000    -2.343000000    -1.810000000
C     1.355000000    -0.989000000    -0.312000000
H     2.284000000    -1.010000000     0.252000000
C     0.272000000    -0.237000000     0.151000000
H     0.313000000     0.207000000     1.106000000
C    -0.942000000    -0.298000000    -0.499000000
H    -1.721000000     0.214000000     0.061000000
C    -1.131000000    -1.123000000    -1.644000000
H    -2.038000000    -1.199000000    -2.237000000
C     0.051000000    -1.789000000    -2.157000000
C    -0.027000000    -2.591000000    -3.448000000
O    -1.088000000    -2.604000000    -4.036000000
O     0.895000000    -3.285000000    -3.959000000
O     1.354000000    -3.027000000    -8.075000000
H     1.863000000    -3.603000000    -7.504000000
H     1.968000000    -2.338000000    -8.328000000
O    -3.627000000    -7.147000000    -3.992000000
H    -3.962000000    -7.260000000    -3.103000000
H    -3.975000000    -6.300000000    -4.273000000
O    -3.665000000    -2.394000000    -8.007000000
H    -3.096000000    -2.464000000    -8.773000000
H    -3.067000000    -2.233000000    -7.277000000
O     0.531000000    -7.177000000    -9.138000000
H     0.734000000    -6.782000000    -8.290000000
H    -0.269000000    -7.680000000    -8.983000000
O    -1.733000000    -8.504000000    -5.352000000
H    -1.653000000    -9.234000000    -4.738000000
H    -2.461000000    -7.984000000    -5.012000000
O     2.027000000    -4.748000000    -5.893000000
H     1.588000000    -5.587000000    -6.027000000
H     1.475000000    -4.287000000    -5.260000000
O     1.187000000    -9.097000000    -3.612000000
H     0.588000000    -8.364000000    -3.754000000
H     1.838000000    -8.760000000    -2.997000000
O    -0.952000000    -1.737000000    -6.952000000
H    -0.276000000    -2.373000000    -7.189000000
H    -1.033000000    -1.816000000    -6.002000000
O     0.465000000    -6.099000000    -2.964000000
H     0.237000000    -5.912000000    -2.054000000
H     0.720000000    -5.250000000    -3.326000000
O     4.417000000    -4.689000000    -4.596000000
H     3.833000000    -4.470000000    -5.322000000
H     5.284000000    -4.415000000    -4.895000000
O    -1.717000000    -4.599000000    -5.666000000
H    -1.272000000    -5.257000000    -5.131000000
H    -1.575000000    -3.775000000    -5.200000000
O    -4.239000000    -4.488000000    -6.172000000
H    -4.531000000    -3.803000000    -6.774000000
H    -3.362000000    -4.214000000    -5.904000000
O     4.800000000    -3.107000000    -7.156000000
H     5.449000000    -2.428000000    -7.341000000
H     4.099000000    -2.648000000    -6.692000000
O     2.788000000    -1.927000000    -5.690000000
H     2.162000000    -2.516000000    -5.268000000
H     2.909000000    -1.216000000    -5.061000000
O     3.322000000    -6.480000000    -2.694000000
H     3.567000000    -5.813000000    -3.335000000
H     2.375000000    -6.382000000    -2.597000000
O     0.613000000    -7.148000000    -6.083000000
H     1.075000000    -7.986000000    -6.105000000
H    -0.169000000    -7.320000000    -5.557000000
O    -1.481000000    -4.351000000    -8.528000000
H    -0.643000000    -3.931000000    -8.333000000
H    -1.895000000    -4.468000000    -7.673000000
O    -0.679000000    -0.072000000    -8.869000000
H     0.113000000     0.255000000    -8.444000000
H    -1.054000000    -0.686000000    -8.238000000
O     2.741000000    -0.529000000    -7.984000000
H     3.182000000     0.298000000    -7.788000000
H     2.604000000    -0.935000000    -7.128000000
