215
-1468.66285
C    -2.466000000    -4.178000000     1.849000000
H    -3.247000000    -3.457000000     1.623000000
C    -1.487000000    -3.702000000     2.776000000
C    -0.253000000    -4.340000000     2.892000000
H     0.530000000    -4.020000000     3.574000000
C    -1.639000000    -2.315000000     3.407000000
O    -2.992000000    -1.871000000     3.594000000
H    -1.321000000    -1.601000000     2.633000000
O    -0.834000000    -2.070000000     4.600000000
C    -0.085000000    -0.936000000     4.650000000
C     1.229000000    -0.981000000     4.144000000
H     1.792000000    -1.861000000     3.844000000
C     1.908000000     0.238000000     4.032000000
O     3.178000000     0.150000000     3.503000000
C     1.376000000     1.456000000     4.480000000
C     2.250000000     2.718000000     4.212000000
H     1.776000000     3.491000000     4.819000000
C     2.304000000     3.189000000     2.755000000
C     1.328000000     4.080000000     2.289000000
H     0.654000000     4.491000000     3.037000000
H     3.286000000     2.644000000     4.551000000
C     0.055000000     1.495000000     4.908000000
H    -0.466000000     2.425000000     5.118000000
C    -0.640000000     0.323000000     5.029000000
C    -2.153000000     0.433000000     5.325000000
H    -2.224000000     1.351000000     5.912000000
H    -2.468000000    -0.352000000     6.016000000
C    -2.955000000     0.463000000     4.030000000
C    -3.202000000     1.687000000     3.423000000
H    -2.952000000     2.645000000     3.871000000
C    -3.319000000    -0.655000000     3.205000000
C    -4.032000000    -0.496000000     2.061000000
H    -4.296000000    -1.434000000     1.579000000
C    -4.312000000     0.762000000     1.469000000
O    -4.890000000     0.853000000     0.236000000
C    -4.072000000     1.056000000    -0.923000000
C    -4.250000000     0.066000000    -2.083000000
C    -3.776000000     0.335000000    -3.377000000
H    -3.029000000     1.118000000    -3.487000000
C    -5.007000000    -1.131000000    -1.915000000
H    -5.498000000    -1.280000000    -0.957000000
O    -4.104000000     2.421000000    -1.329000000
H    -3.094000000     0.766000000    -0.513000000
C    -3.840000000     1.857000000     2.160000000
C    -4.061000000     3.197000000     1.585000000
H    -4.114000000     4.036000000     2.281000000
H    -5.043000000     3.214000000     1.108000000
C    -3.068000000     3.643000000     0.540000000
C    -2.024000000     4.499000000     0.922000000
H    -1.900000000     4.661000000     1.989000000
C    -3.120000000     3.281000000    -0.829000000
C    -2.171000000     3.701000000    -1.734000000
H    -2.243000000     3.395000000    -2.775000000
C    -1.025000000     4.343000000    -1.263000000
O    -0.006000000     4.513000000    -2.107000000
C     1.119000000     3.629000000    -2.066000000
C     1.650000000     3.230000000    -3.420000000
C     0.807000000     2.853000000    -4.431000000
H    -0.273000000     2.818000000    -4.311000000
C     3.026000000     3.073000000    -3.577000000
H     3.722000000     3.324000000    -2.781000000
O     2.046000000     4.228000000    -1.199000000
H     0.793000000     2.735000000    -1.515000000
C    -0.951000000     4.778000000     0.038000000
C     0.292000000     5.538000000     0.580000000
H     0.118000000     6.282000000     1.359000000
H     0.629000000     6.184000000    -0.233000000
C     1.319000000     4.549000000     1.018000000
C     2.188000000     3.952000000     0.108000000
C     3.116000000     3.016000000     0.510000000
H     3.758000000     2.564000000    -0.241000000
C     3.279000000     2.711000000     1.818000000
O     4.137000000     1.705000000     2.039000000
C     3.436000000     0.412000000     2.102000000
H     2.603000000     0.316000000     1.390000000
C     4.326000000    -0.558000000     1.499000000
C     4.513000000    -1.841000000     2.100000000
H     4.107000000    -2.122000000     3.069000000
C     4.731000000    -0.331000000     0.187000000
H     4.597000000     0.650000000    -0.262000000
C     5.599000000    -1.297000000    -0.379000000
O     6.343000000    -1.018000000    -1.563000000
C     5.853000000    -2.538000000     0.238000000
H     6.433000000    -3.317000000    -0.250000000
C     5.269000000    -2.761000000     1.505000000
O     5.462000000    -3.971000000     2.220000000
C     4.391000000    -4.684000000     2.861000000
C     3.314000000    -5.222000000     2.110000000
H     3.194000000    -5.118000000     1.035000000
C     4.532000000    -5.089000000     4.168000000
H     5.484000000    -4.850000000     4.635000000
C     3.477000000    -5.743000000     4.863000000
H     3.501000000    -6.047000000     5.906000000
C     2.305000000    -5.979000000     4.174000000
H     1.451000000    -6.473000000     4.631000000
C     2.310000000    -5.837000000     2.810000000
O     1.134000000    -6.306000000     2.151000000
C    -0.032000000    -5.504000000     2.143000000
C    -0.963000000    -5.991000000     1.259000000
H    -0.846000000    -6.940000000     0.743000000
C    -2.171000000    -5.297000000     1.073000000
O    -2.993000000    -5.748000000     0.116000000
C    -4.248000000    -5.144000000    -0.178000000
C    -4.477000000    -4.351000000    -1.334000000
H    -3.624000000    -4.049000000    -1.937000000
C    -5.305000000    -5.640000000     0.623000000
H    -5.010000000    -6.329000000     1.411000000
C    -6.573000000    -5.183000000     0.293000000
H    -7.471000000    -5.422000000     0.858000000
C    -6.780000000    -4.363000000    -0.812000000
H    -7.822000000    -4.146000000    -1.034000000
C    -5.772000000    -3.982000000    -1.685000000
O    -6.090000000    -3.114000000    -2.755000000
C    -5.342000000    -1.989000000    -2.966000000
C    -4.810000000    -1.691000000    -4.256000000
H    -5.059000000    -2.291000000    -5.127000000
C    -4.038000000    -0.534000000    -4.461000000
O    -3.513000000    -0.290000000    -5.728000000
C    -2.872000000     0.865000000    -5.999000000
C    -1.449000000     0.811000000    -6.139000000
H    -0.872000000    -0.102000000    -6.009000000
C    -3.560000000     2.074000000    -6.059000000
H    -4.634000000     2.066000000    -5.890000000
C    -2.910000000     3.257000000    -6.325000000
H    -3.463000000     4.193000000    -6.354000000
C    -1.562000000     3.230000000    -6.438000000
H    -1.073000000     4.181000000    -6.632000000
C    -0.873000000     2.051000000    -6.453000000
O     0.487000000     2.168000000    -6.705000000
C     1.316000000     2.440000000    -5.674000000
C     2.686000000     2.295000000    -5.842000000
H     3.118000000     1.914000000    -6.764000000
C     3.503000000     2.546000000    -4.767000000
O     4.817000000     2.071000000    -4.850000000
C     5.657000000     1.796000000    -3.833000000
C     6.592000000     2.733000000    -3.388000000
H     6.619000000     3.752000000    -3.765000000
C     7.616000000     2.315000000    -2.419000000
H     8.411000000     3.010000000    -2.164000000
C     7.449000000     1.126000000    -1.724000000
H     8.067000000     0.843000000    -0.876000000
C     6.402000000     0.273000000    -2.122000000
C     5.531000000     0.539000000    -3.207000000
H     4.855000000    -0.247000000    -3.534000000
C     1.135000000    -1.589000000    -0.467000000
H     2.212000000    -1.597000000    -0.618000000
C     0.483000000    -0.438000000     0.001000000
H     0.972000000     0.531000000     0.059000000
C    -0.923000000    -0.535000000     0.268000000
H    -1.409000000     0.318000000     0.740000000
C    -1.671000000    -1.664000000    -0.160000000
H    -2.740000000    -1.762000000     0.010000000
C    -1.042000000    -2.756000000    -0.669000000
H    -1.654000000    -3.524000000    -1.136000000
C     0.352000000    -2.781000000    -0.702000000
C     0.933000000    -4.030000000    -1.307000000
O     0.141000000    -4.931000000    -1.635000000
O     2.122000000    -4.088000000    -1.517000000
O     2.503000000    -8.667000000     0.886000000
H     3.356000000    -8.456000000     0.506000000
H     1.919000000    -7.982000000     0.561000000
O    -1.448000000    -5.810000000    -3.434000000
H    -1.161000000    -6.600000000    -3.891000000
H    -0.954000000    -5.814000000    -2.614000000
O    -0.609000000    -2.664000000    -5.660000000
H     0.080000000    -3.328000000    -5.630000000
H    -0.534000000    -2.203000000    -4.825000000
O     6.158000000    -2.915000000    -3.523000000
H     6.712000000    -2.161000000    -3.320000000
H     6.388000000    -3.567000000    -2.861000000
O    -2.875000000    -4.434000000    -5.181000000
H    -2.449000000    -4.940000000    -4.489000000
H    -2.261000000    -3.724000000    -5.370000000
O     2.991000000    -9.290000000    -2.162000000
H     2.229000000    -8.754000000    -1.942000000
H     3.364000000    -8.870000000    -2.937000000
O     0.782000000    -7.644000000    -1.608000000
H     0.723000000    -6.689000000    -1.569000000
H     0.410000000    -7.873000000    -2.459000000
O     3.784000000    -6.142000000    -1.423000000
H     3.369000000    -5.285000000    -1.521000000
H     3.100000000    -6.768000000    -1.662000000
O     3.825000000    -8.060000000    -4.535000000
H     3.954000000    -7.176000000    -4.879000000
H     3.823000000    -8.620000000    -5.311000000
O     5.207000000    -7.422000000     0.578000000
H     4.841000000    -6.855000000    -0.100000000
H     5.922000000    -6.911000000     0.958000000
O     3.501000000    -2.253000000    -3.037000000
H     4.395000000    -2.587000000    -3.113000000
H     3.027000000    -2.943000000    -2.572000000
O     0.001000000    -7.937000000    -4.214000000
H    -0.130000000    -8.491000000    -4.983000000
H     0.750000000    -7.386000000    -4.440000000
O     4.683000000    -5.265000000    -4.356000000
H     4.402000000    -5.784000000    -3.601000000
H     5.320000000    -4.647000000    -3.997000000
O    -0.561000000    -1.139000000    -3.157000000
H    -0.969000000    -1.447000000    -2.348000000
H     0.257000000    -0.730000000    -2.872000000
O     4.112000000    -1.680000000    -6.042000000
H     3.918000000    -1.872000000    -5.124000000
H     5.058000000    -1.798000000    -6.117000000
O     1.774000000    -5.715000000    -4.107000000
H     1.372000000    -5.120000000    -3.473000000
H     1.809000000    -5.210000000    -4.919000000
O    -2.405000000    -8.705000000    -1.599000000
H    -1.816000000    -8.026000000    -1.268000000
H    -2.038000000    -8.947000000    -2.449000000
O     1.911000000     0.124000000    -3.105000000
H     2.547000000    -0.582000000    -3.217000000
H     2.008000000     0.661000000    -3.892000000
O     2.197000000    -3.920000000    -6.054000000
H     2.475000000    -3.049000000    -6.340000000
H     2.435000000    -4.497000000    -6.780000000
