215
-1472.40506
C     3.426000000    -2.387000000    -1.480000000
H     2.456000000    -2.878000000    -1.510000000
C     3.968000000    -1.888000000    -0.311000000
C     5.090000000    -1.038000000    -0.494000000
H     5.328000000    -0.315000000     0.281000000
C     3.286000000    -2.103000000     1.077000000
O     3.113000000    -3.481000000     1.448000000
H     2.264000000    -1.696000000     1.063000000
O     4.026000000    -1.445000000     2.116000000
C     3.329000000    -0.638000000     2.928000000
C     3.470000000     0.760000000     2.813000000
H     4.162000000     1.117000000     2.054000000
C     2.679000000     1.590000000     3.558000000
O     2.632000000     2.914000000     3.196000000
C     1.811000000     1.105000000     4.536000000
C     0.871000000     2.027000000     5.282000000
H     0.698000000     1.540000000     6.244000000
C    -0.393000000     2.188000000     4.542000000
C    -1.491000000     1.314000000     4.680000000
H    -1.410000000     0.451000000     5.335000000
H     1.386000000     2.980000000     5.421000000
C     1.687000000    -0.261000000     4.652000000
H     1.029000000    -0.641000000     5.429000000
C     2.477000000    -1.191000000     3.882000000
C     2.269000000    -2.641000000     4.174000000
H     1.953000000    -2.690000000     5.219000000
H     3.297000000    -3.009000000     4.150000000
C     1.364000000    -3.378000000     3.166000000
C     0.058000000    -3.560000000     3.594000000
H    -0.234000000    -3.236000000     4.590000000
C     1.838000000    -3.812000000     1.949000000
C     1.015000000    -4.489000000     1.077000000
H     1.314000000    -4.863000000     0.101000000
C    -0.362000000    -4.572000000     1.418000000
O    -1.255000000    -5.023000000     0.458000000
C    -2.023000000    -4.020000000    -0.302000000
C    -2.130000000    -4.434000000    -1.800000000
C    -3.205000000    -3.969000000    -2.547000000
H    -3.972000000    -3.391000000    -2.038000000
C    -1.145000000    -5.245000000    -2.406000000
H    -0.249000000    -5.536000000    -1.865000000
O    -3.338000000    -3.849000000     0.415000000
H    -1.455000000    -3.080000000    -0.253000000
C    -0.848000000    -4.081000000     2.658000000
C    -2.326000000    -4.166000000     3.026000000
H    -2.383000000    -4.323000000     4.105000000
H    -2.865000000    -5.051000000     2.683000000
C    -3.086000000    -2.945000000     2.592000000
C    -3.283000000    -1.824000000     3.432000000
H    -3.003000000    -1.880000000     4.481000000
C    -3.523000000    -2.816000000     1.280000000
C    -4.102000000    -1.616000000     0.799000000
H    -4.542000000    -1.607000000    -0.195000000
C    -4.196000000    -0.467000000     1.645000000
O    -4.635000000     0.730000000     1.069000000
C    -3.584000000     1.708000000     0.915000000
C    -3.807000000     2.329000000    -0.495000000
C    -4.113000000     1.449000000    -1.555000000
H    -4.205000000     0.373000000    -1.432000000
C    -3.502000000     3.706000000    -0.757000000
H    -3.307000000     4.376000000     0.076000000
O    -3.621000000     2.691000000     2.033000000
H    -2.568000000     1.285000000     0.905000000
C    -3.793000000    -0.586000000     2.981000000
C    -3.802000000     0.519000000     3.980000000
H    -3.809000000     0.175000000     5.016000000
H    -4.697000000     1.138000000     3.887000000
C    -2.579000000     1.485000000     3.891000000
C    -2.617000000     2.538000000     2.931000000
C    -1.606000000     3.441000000     2.844000000
H    -1.532000000     4.189000000     2.060000000
C    -0.445000000     3.233000000     3.573000000
O     0.641000000     4.035000000     3.247000000
C     1.554000000     3.336000000     2.402000000
H     1.030000000     2.496000000     1.922000000
C     2.046000000     4.225000000     1.183000000
C     3.223000000     3.861000000     0.573000000
H     3.843000000     3.060000000     0.969000000
C     1.298000000     5.293000000     0.683000000
H     0.393000000     5.670000000     1.153000000
C     1.649000000     5.979000000    -0.480000000
O     0.881000000     6.952000000    -1.077000000
C     2.804000000     5.542000000    -1.087000000
H     3.229000000     6.030000000    -1.960000000
C     3.594000000     4.514000000    -0.626000000
O     4.768000000     4.285000000    -1.244000000
C     5.723000000     3.395000000    -0.864000000
C     5.714000000     2.153000000    -1.467000000
H     4.853000000     1.873000000    -2.068000000
C     6.796000000     3.804000000    -0.073000000
H     6.873000000     4.764000000     0.431000000
C     7.850000000     2.922000000     0.207000000
H     8.655000000     3.200000000     0.883000000
C     7.774000000     1.597000000    -0.378000000
H     8.572000000     0.891000000    -0.164000000
C     6.751000000     1.295000000    -1.296000000
O     6.698000000     0.037000000    -1.914000000
C     5.598000000    -0.832000000    -1.766000000
C     5.189000000    -1.562000000    -2.881000000
H     5.709000000    -1.446000000    -3.829000000
C     4.026000000    -2.281000000    -2.743000000
O     3.437000000    -2.911000000    -3.850000000
C     2.979000000    -4.190000000    -3.842000000
C     1.642000000    -4.491000000    -4.206000000
H     0.942000000    -3.686000000    -4.415000000
C     3.794000000    -5.228000000    -3.361000000
H     4.790000000    -4.985000000    -3.000000000
C     3.406000000    -6.566000000    -3.447000000
H     4.064000000    -7.314000000    -3.012000000
C     2.122000000    -6.877000000    -3.923000000
H     1.681000000    -7.871000000    -3.905000000
C     1.211000000    -5.866000000    -4.260000000
O    -0.130000000    -6.020000000    -4.544000000
C    -1.157000000    -5.403000000    -3.795000000
C    -2.176000000    -4.851000000    -4.590000000
H    -2.171000000    -4.964000000    -5.671000000
C    -3.216000000    -4.168000000    -3.928000000
O    -4.195000000    -3.685000000    -4.715000000
C    -4.843000000    -2.570000000    -4.309000000
C    -4.240000000    -1.281000000    -4.186000000
H    -3.157000000    -1.208000000    -4.255000000
C    -6.206000000    -2.712000000    -3.979000000
H    -6.592000000    -3.728000000    -3.986000000
C    -6.954000000    -1.583000000    -3.651000000
H    -8.016000000    -1.664000000    -3.434000000
C    -6.351000000    -0.294000000    -3.554000000
H    -6.933000000     0.613000000    -3.410000000
C    -4.989000000    -0.138000000    -3.804000000
O    -4.415000000     1.078000000    -3.901000000
C    -4.220000000     2.002000000    -2.819000000
C    -3.962000000     3.310000000    -3.119000000
H    -4.053000000     3.668000000    -4.141000000
C    -3.608000000     4.163000000    -2.068000000
O    -3.459000000     5.447000000    -2.443000000
C    -2.684000000     6.341000000    -1.711000000
C    -3.278000000     7.041000000    -0.693000000
H    -4.361000000     7.112000000    -0.635000000
C    -2.446000000     7.751000000     0.163000000
H    -2.948000000     8.119000000     1.054000000
C    -1.077000000     7.744000000     0.090000000
H    -0.436000000     8.292000000     0.775000000
C    -0.477000000     7.031000000    -0.926000000
C    -1.313000000     6.411000000    -1.885000000
H    -0.991000000     5.868000000    -2.770000000
C    -0.188000000     0.177000000    -2.201000000
H    -0.655000000    -0.122000000    -3.136000000
C    -0.753000000    -0.266000000    -1.029000000
H    -1.688000000    -0.805000000    -1.160000000
C    -0.171000000     0.000000000     0.192000000
H    -0.631000000    -0.414000000     1.079000000
C     1.154000000     0.539000000     0.183000000
H     1.613000000     0.658000000     1.161000000
C     1.706000000     1.050000000    -1.039000000
H     2.733000000     1.385000000    -0.912000000
C     0.986000000     0.931000000    -2.252000000
C     1.511000000     1.350000000    -3.544000000
O     2.554000000     1.938000000    -3.686000000
O     0.872000000     1.049000000    -4.531000000
O     0.925000000     4.490000000    -8.214000000
H     1.233000000     3.800000000    -7.627000000
H     1.139000000     4.171000000    -9.091000000
O     1.860000000     2.511000000    -6.520000000
H     2.615000000     2.900000000    -6.079000000
H     1.455000000     1.954000000    -5.855000000
O    -3.080000000     3.480000000    -7.535000000
H    -2.398000000     3.410000000    -6.868000000
H    -3.597000000     2.681000000    -7.433000000
O    -3.694000000     0.923000000    -6.846000000
H    -3.203000000     0.150000000    -7.124000000
H    -4.050000000     0.686000000    -5.990000000
O     0.868000000    -0.135000000    -9.046000000
H     1.507000000     0.439000000    -9.468000000
H     1.175000000    -1.020000000    -9.244000000
O     3.522000000     4.349000000    -4.967000000
H     3.237000000     3.691000000    -4.334000000
H     3.202000000     5.178000000    -4.612000000
O     4.732000000     0.799000000    -5.022000000
H     4.599000000    -0.101000000    -5.321000000
H     3.986000000     0.973000000    -4.447000000
O     5.090000000     4.747000000    -7.274000000
H     4.425000000     4.785000000    -6.587000000
H     5.908000000     4.968000000    -6.827000000
O     7.525000000     4.978000000    -4.524000000
H     6.824000000     4.836000000    -3.887000000
H     8.330000000     4.926000000    -4.009000000
O     2.538000000     6.632000000    -4.147000000
H     1.710000000     6.729000000    -4.617000000
H     2.715000000     7.503000000    -3.790000000
O    -1.487000000     2.049000000    -9.350000000
H    -1.035000000     2.867000000    -9.143000000
H    -2.073000000     1.905000000    -8.607000000
O     7.188000000     2.267000000    -4.785000000
H     6.305000000     2.055000000    -4.483000000
H     7.239000000     3.221000000    -4.726000000
O     0.355000000    -4.429000000    -7.287000000
H     1.241000000    -4.135000000    -7.502000000
H    -0.094000000    -3.637000000    -6.991000000
O     5.144000000     1.403000000    -7.814000000
H     4.798000000     1.290000000    -6.929000000
H     5.154000000     2.351000000    -7.948000000
O     3.539000000    -3.190000000    -6.941000000
H     3.798000000    -3.086000000    -6.026000000
H     4.365000000    -3.203000000    -7.424000000
O    -1.158000000     3.087000000    -5.460000000
H    -0.872000000     2.366000000    -4.899000000
H    -0.398000000     3.666000000    -5.513000000
O    -1.703000000    -0.672000000    -7.814000000
H    -1.099000000    -0.234000000    -8.413000000
H    -1.138000000    -1.078000000    -7.157000000
O     0.521000000    -0.991000000    -6.260000000
H     0.499000000    -0.200000000    -5.721000000
H     0.995000000    -0.729000000    -7.049000000
O    -1.558000000     5.871000000    -7.170000000
H    -0.777000000     5.510000000    -7.590000000
H    -2.244000000     5.228000000    -7.348000000
