215
-1428.92755
C    -2.570000000    -2.504000000     4.072000000
H    -3.521000000    -2.011000000     3.886000000
C    -1.355000000    -1.794000000     4.288000000
C    -0.178000000    -2.407000000     4.666000000
H     0.714000000    -1.828000000     4.892000000
C    -1.398000000    -0.294000000     4.072000000
O    -2.714000000     0.275000000     4.147000000
H    -1.022000000    -0.151000000     3.049000000
O    -0.515000000     0.433000000     5.026000000
C     0.174000000     1.434000000     4.402000000
C     1.493000000     1.159000000     4.103000000
H     1.916000000     0.177000000     4.300000000
C     2.231000000     2.137000000     3.418000000
O     3.455000000     1.738000000     2.988000000
C     1.652000000     3.378000000     3.073000000
C     2.503000000     4.377000000     2.260000000
H     2.232000000     5.408000000     2.495000000
C     2.478000000     4.138000000     0.773000000
C     1.472000000     4.794000000     0.025000000
H     0.841000000     5.500000000     0.559000000
H     3.479000000     4.331000000     2.749000000
C     0.379000000     3.639000000     3.432000000
H    -0.095000000     4.561000000     3.106000000
C    -0.397000000     2.688000000     4.003000000
C    -1.809000000     2.978000000     4.252000000
H    -1.986000000     4.042000000     4.420000000
H    -2.065000000     2.494000000     5.197000000
C    -2.698000000     2.464000000     3.200000000
C    -3.133000000     3.313000000     2.132000000
H    -2.641000000     4.280000000     2.068000000
C    -3.248000000     1.191000000     3.217000000
C    -4.141000000     0.780000000     2.256000000
H    -4.526000000    -0.231000000     2.359000000
C    -4.406000000     1.544000000     1.152000000
O    -4.960000000     0.767000000     0.136000000
C    -4.088000000     0.498000000    -0.931000000
C    -4.459000000    -0.794000000    -1.508000000
C    -4.143000000    -1.041000000    -2.869000000
H    -3.881000000    -0.238000000    -3.552000000
C    -4.828000000    -1.910000000    -0.742000000
H    -4.967000000    -1.807000000     0.331000000
O    -4.077000000     1.509000000    -1.918000000
H    -3.065000000     0.449000000    -0.530000000
C    -3.919000000     2.857000000     1.059000000
C    -4.178000000     3.830000000    -0.126000000
H    -4.121000000     4.859000000     0.234000000
H    -5.213000000     3.691000000    -0.449000000
C    -3.119000000     3.591000000    -1.135000000
C    -2.069000000     4.529000000    -1.177000000
H    -2.000000000     5.402000000    -0.533000000
C    -3.185000000     2.493000000    -1.953000000
C    -2.213000000     2.349000000    -2.882000000
H    -2.282000000     1.532000000    -3.596000000
C    -1.129000000     3.183000000    -2.974000000
O    -0.291000000     2.924000000    -3.992000000
C     1.018000000     2.427000000    -3.607000000
C     1.603000000     1.288000000    -4.534000000
C     0.709000000     0.455000000    -5.202000000
H    -0.360000000     0.635000000    -5.122000000
C     2.947000000     1.047000000    -4.563000000
H     3.735000000     1.660000000    -4.135000000
O     2.024000000     3.374000000    -3.326000000
H     1.027000000     1.884000000    -2.650000000
C    -1.026000000     4.272000000    -2.122000000
C     0.216000000     5.209000000    -2.139000000
H    -0.088000000     6.164000000    -1.705000000
H     0.503000000     5.482000000    -3.156000000
C     1.310000000     4.587000000    -1.369000000
C     2.193000000     3.809000000    -2.016000000
C     3.173000000     3.118000000    -1.328000000
H     3.751000000     2.367000000    -1.860000000
C     3.385000000     3.322000000     0.053000000
O     4.217000000     2.496000000     0.746000000
C     3.663000000     1.482000000     1.543000000
H     2.679000000     1.270000000     1.100000000
C     4.327000000     0.138000000     1.347000000
C     4.518000000    -0.676000000     2.477000000
H     4.271000000    -0.444000000     3.510000000
C     4.613000000    -0.357000000     0.047000000
H     4.402000000     0.249000000    -0.830000000
C     5.204000000    -1.616000000    -0.082000000
O     5.680000000    -1.988000000    -1.347000000
C     5.510000000    -2.371000000     0.980000000
H     5.881000000    -3.377000000     0.801000000
C     5.167000000    -1.917000000     2.260000000
O     5.546000000    -2.753000000     3.364000000
C     4.558000000    -3.221000000     4.274000000
C     3.284000000    -3.576000000     3.939000000
H     2.993000000    -3.653000000     2.895000000
C     4.860000000    -3.096000000     5.674000000
H     5.853000000    -2.760000000     5.962000000
C     3.900000000    -3.436000000     6.663000000
H     4.192000000    -3.321000000     7.704000000
C     2.644000000    -3.771000000     6.313000000
H     2.003000000    -4.105000000     7.125000000
C     2.308000000    -3.873000000     4.948000000
O     1.109000000    -4.441000000     4.595000000
C    -0.136000000    -3.804000000     4.571000000
C    -1.304000000    -4.505000000     4.384000000
H    -1.357000000    -5.582000000     4.523000000
C    -2.522000000    -3.884000000     4.207000000
O    -3.698000000    -4.639000000     4.132000000
C    -4.691000000    -4.500000000     3.149000000
C    -4.369000000    -4.526000000     1.786000000
H    -3.368000000    -4.780000000     1.446000000
C    -6.029000000    -4.179000000     3.583000000
H    -6.251000000    -4.167000000     4.647000000
C    -6.985000000    -3.954000000     2.658000000
H    -8.031000000    -3.800000000     2.907000000
C    -6.641000000    -4.042000000     1.339000000
H    -7.484000000    -3.857000000     0.678000000
C    -5.380000000    -4.299000000     0.817000000
O    -5.139000000    -4.331000000    -0.554000000
C    -4.907000000    -3.151000000    -1.304000000
C    -4.618000000    -3.368000000    -2.668000000
H    -4.593000000    -4.414000000    -2.965000000
C    -4.281000000    -2.285000000    -3.456000000
O    -3.977000000    -2.568000000    -4.796000000
C    -3.125000000    -1.909000000    -5.583000000
C    -1.789000000    -2.130000000    -5.598000000
H    -1.194000000    -2.783000000    -4.964000000
C    -3.696000000    -1.071000000    -6.505000000
H    -4.762000000    -0.882000000    -6.413000000
C    -2.942000000    -0.348000000    -7.406000000
H    -3.424000000     0.354000000    -8.082000000
C    -1.561000000    -0.451000000    -7.375000000
H    -0.884000000     0.265000000    -7.835000000
C    -1.031000000    -1.401000000    -6.533000000
O     0.330000000    -1.542000000    -6.507000000
C     1.178000000    -0.611000000    -5.937000000
C     2.548000000    -0.771000000    -6.147000000
H     2.955000000    -1.541000000    -6.797000000
C     3.387000000     0.112000000    -5.496000000
O     4.719000000    -0.099000000    -5.593000000
C     5.625000000    -0.286000000    -4.509000000
C     6.849000000     0.341000000    -4.496000000
H     7.250000000     0.871000000    -5.356000000
C     7.710000000     0.185000000    -3.414000000
H     8.718000000     0.571000000    -3.536000000
C     7.340000000    -0.537000000    -2.330000000
H     8.009000000    -0.632000000    -1.478000000
C     6.094000000    -1.106000000    -2.318000000
C     5.253000000    -1.084000000    -3.504000000
H     4.283000000    -1.575000000    -3.522000000
C     1.352000000    -1.599000000    -0.269000000
H     2.345000000    -1.988000000    -0.479000000
C     1.241000000    -0.227000000    -0.184000000
H     2.090000000     0.344000000    -0.552000000
C     0.119000000     0.363000000     0.268000000
H    -0.131000000     1.460000000     0.198000000
C    -0.893000000    -0.465000000     0.663000000
H    -1.789000000    -0.015000000     1.083000000
C    -0.832000000    -1.892000000     0.597000000
H    -1.724000000    -2.476000000     0.812000000
C     0.361000000    -2.490000000     0.120000000
C     0.529000000    -3.989000000     0.210000000
O    -0.439000000    -4.660000000     0.387000000
O     1.617000000    -4.487000000     0.131000000
O     3.422000000    -8.659000000     0.534000000
H     2.625000000    -8.722000000     1.060000000
H     4.015000000    -9.303000000     0.920000000
O    -2.312000000    -6.675000000     0.246000000
H    -1.650000000    -5.987000000     0.313000000
H    -2.158000000    -7.231000000     1.010000000
O    -1.689000000    -8.010000000     2.666000000
H    -0.980000000    -7.400000000     2.463000000
H    -1.613000000    -8.161000000     3.608000000
O     6.037000000    -5.857000000     1.775000000
H     6.195000000    -6.637000000     2.307000000
H     5.118000000    -5.926000000     1.515000000
O     0.728000000    -8.784000000    -4.139000000
H    -0.037000000    -8.232000000    -3.979000000
H     0.924000000    -9.176000000    -3.288000000
O    -4.312000000    -6.991000000    -1.900000000
H    -3.918000000    -7.425000000    -2.657000000
H    -3.576000000    -6.816000000    -1.314000000
O     1.492000000    -5.635000000    -2.308000000
H     1.282000000    -4.788000000    -2.699000000
H     1.517000000    -5.465000000    -1.366000000
O    -1.553000000    -4.344000000    -2.081000000
H    -1.457000000    -4.234000000    -1.135000000
H    -2.485000000    -4.198000000    -2.246000000
O     3.789000000    -5.965000000     0.369000000
H     3.318000000    -6.776000000     0.561000000
H     3.100000000    -5.318000000     0.219000000
O     1.261000000    -9.096000000     1.813000000
H     0.631000000    -9.801000000     1.965000000
H     0.916000000    -8.355000000     2.312000000
O     1.392000000    -9.936000000    -1.678000000
H     0.961000000   -10.752000000    -1.424000000
H     1.982000000    -9.739000000    -0.949000000
O    -1.666000000    -8.090000000    -2.100000000
H    -1.369000000    -7.238000000    -2.418000000
H    -1.330000000    -8.141000000    -1.205000000
O     0.399000000    -6.364000000     2.236000000
H     0.640000000    -5.840000000     2.999000000
H     0.493000000    -5.766000000     1.494000000
O     1.817000000    -3.190000000    -3.777000000
H     2.769000000    -3.286000000    -3.763000000
H     1.607000000    -3.018000000    -4.695000000
O    -0.947000000    -6.319000000    -4.017000000
H    -0.202000000    -6.117000000    -4.584000000
H    -0.963000000    -5.605000000    -3.380000000
O     5.966000000    -5.160000000    -1.528000000
H     5.915000000    -5.886000000    -0.908000000
H     5.185000000    -4.636000000    -1.349000000
O     3.260000000    -6.038000000    -4.359000000
H     2.805000000    -5.943000000    -3.523000000
H     2.573000000    -5.945000000    -5.019000000
O    -0.499000000    -0.919000000    -2.581000000
H    -0.450000000    -1.047000000    -1.634000000
H     0.325000000    -1.275000000    -2.914000000
O     3.485000000    -7.764000000    -1.970000000
H     2.772000000    -7.132000000    -1.874000000
H     3.562000000    -8.170000000    -1.107000000
