215
-1451.86554
C    -2.092000000    -2.947000000     3.399000000
H    -2.782000000    -2.640000000     2.617000000
C    -1.513000000    -1.947000000     4.203000000
C    -0.574000000    -2.353000000     5.157000000
H     0.046000000    -1.611000000     5.653000000
C    -1.694000000    -0.405000000     3.880000000
O    -3.088000000    -0.091000000     3.621000000
H    -1.077000000    -0.184000000     2.997000000
O    -1.238000000     0.417000000     4.928000000
C    -0.605000000     1.486000000     4.493000000
C     0.780000000     1.302000000     4.356000000
H     1.225000000     0.348000000     4.629000000
C     1.488000000     2.304000000     3.722000000
O     2.843000000     2.063000000     3.539000000
C     0.935000000     3.520000000     3.366000000
C     1.800000000     4.623000000     2.681000000
H     1.397000000     5.616000000     2.894000000
C     1.864000000     4.416000000     1.149000000
C     0.939000000     5.001000000     0.264000000
H     0.084000000     5.491000000     0.723000000
H     2.789000000     4.564000000     3.141000000
C    -0.463000000     3.691000000     3.486000000
H    -0.985000000     4.586000000     3.157000000
C    -1.223000000     2.601000000     3.909000000
C    -2.739000000     2.816000000     3.912000000
H    -3.083000000     3.851000000     3.964000000
H    -3.118000000     2.344000000     4.821000000
C    -3.387000000     2.195000000     2.672000000
C    -3.868000000     3.000000000     1.627000000
H    -3.855000000     4.087000000     1.670000000
C    -3.462000000     0.810000000     2.649000000
C    -4.046000000     0.198000000     1.550000000
H    -4.106000000    -0.878000000     1.406000000
C    -4.577000000     0.942000000     0.483000000
O    -4.954000000     0.169000000    -0.551000000
C    -4.045000000     0.065000000    -1.653000000
C    -4.215000000    -1.228000000    -2.385000000
C    -4.237000000    -1.263000000    -3.830000000
H    -4.144000000    -0.385000000    -4.465000000
C    -4.184000000    -2.452000000    -1.796000000
H    -4.173000000    -2.515000000    -0.711000000
O    -4.258000000     1.124000000    -2.510000000
H    -3.074000000     0.219000000    -1.161000000
C    -4.504000000     2.352000000     0.533000000
C    -4.867000000     3.199000000    -0.723000000
H    -5.022000000     4.251000000    -0.474000000
H    -5.704000000     2.842000000    -1.326000000
C    -3.587000000     3.222000000    -1.587000000
C    -2.572000000     4.150000000    -1.399000000
H    -2.732000000     4.841000000    -0.575000000
C    -3.396000000     2.166000000    -2.527000000
C    -2.271000000     2.117000000    -3.318000000
H    -2.169000000     1.289000000    -4.015000000
C    -1.295000000     3.105000000    -3.176000000
O    -0.138000000     2.884000000    -3.921000000
C     0.905000000     2.282000000    -3.244000000
C     1.586000000     1.147000000    -4.018000000
C     0.907000000     0.291000000    -4.874000000
H    -0.138000000     0.497000000    -5.092000000
C     2.992000000     0.996000000    -3.861000000
H     3.551000000     1.736000000    -3.293000000
O     1.756000000     3.368000000    -2.825000000
H     0.463000000     1.733000000    -2.399000000
C    -1.388000000     4.103000000    -2.174000000
C    -0.232000000     5.050000000    -1.949000000
H    -0.629000000     5.955000000    -1.484000000
H     0.199000000     5.407000000    -2.887000000
C     0.827000000     4.500000000    -1.002000000
C     1.831000000     3.673000000    -1.496000000
C     2.913000000     3.211000000    -0.708000000
H     3.709000000     2.571000000    -1.078000000
C     2.907000000     3.556000000     0.633000000
O     3.805000000     2.914000000     1.484000000
C     3.241000000     1.790000000     2.188000000
H     2.329000000     1.417000000     1.699000000
C     4.173000000     0.573000000     2.280000000
C     4.075000000    -0.514000000     3.199000000
H     3.480000000    -0.287000000     4.080000000
C     5.059000000     0.318000000     1.225000000
H     5.081000000     1.025000000     0.400000000
C     5.739000000    -0.870000000     1.056000000
O     6.518000000    -1.055000000    -0.054000000
C     5.734000000    -1.784000000     2.004000000
H     6.459000000    -2.594000000     2.007000000
C     4.888000000    -1.678000000     3.095000000
O     4.880000000    -2.713000000     3.941000000
C     4.041000000    -2.852000000     4.992000000
C     2.721000000    -3.336000000     4.913000000
H     2.257000000    -3.423000000     3.934000000
C     4.599000000    -2.620000000     6.275000000
H     5.653000000    -2.353000000     6.290000000
C     3.936000000    -2.949000000     7.434000000
H     4.424000000    -2.791000000     8.393000000
C     2.634000000    -3.386000000     7.325000000
H     2.060000000    -3.532000000     8.237000000
C     2.050000000    -3.666000000     6.095000000
O     0.755000000    -4.182000000     6.036000000
C    -0.347000000    -3.723000000     5.315000000
C    -0.994000000    -4.698000000     4.629000000
H    -0.690000000    -5.740000000     4.584000000
C    -1.848000000    -4.307000000     3.595000000
O    -2.151000000    -5.184000000     2.564000000
C    -3.308000000    -5.132000000     1.760000000
C    -3.063000000    -4.943000000     0.371000000
H    -2.037000000    -4.882000000     0.015000000
C    -4.565000000    -5.026000000     2.214000000
H    -4.767000000    -5.014000000     3.282000000
C    -5.621000000    -4.822000000     1.348000000
H    -6.642000000    -4.649000000     1.680000000
C    -5.427000000    -4.817000000    -0.043000000
H    -6.224000000    -4.595000000    -0.748000000
C    -4.167000000    -4.915000000    -0.540000000
O    -3.931000000    -4.825000000    -1.831000000
C    -4.053000000    -3.640000000    -2.519000000
C    -4.124000000    -3.633000000    -3.877000000
H    -4.067000000    -4.584000000    -4.400000000
C    -4.109000000    -2.449000000    -4.565000000
O    -3.898000000    -2.412000000    -5.917000000
C    -2.835000000    -1.736000000    -6.587000000
C    -1.534000000    -2.136000000    -6.282000000
H    -1.265000000    -2.776000000    -5.446000000
C    -3.053000000    -0.894000000    -7.712000000
H    -4.055000000    -0.763000000    -8.114000000
C    -1.998000000    -0.160000000    -8.315000000
H    -2.200000000     0.561000000    -9.103000000
C    -0.711000000    -0.367000000    -7.741000000
H     0.171000000     0.141000000    -8.121000000
C    -0.524000000    -1.377000000    -6.786000000
O     0.774000000    -1.623000000    -6.281000000
C     1.539000000    -0.795000000    -5.506000000
C     2.927000000    -0.972000000    -5.249000000
H     3.553000000    -1.694000000    -5.768000000
C     3.675000000    -0.051000000    -4.496000000
O     5.080000000    -0.040000000    -4.490000000
C     5.739000000     0.320000000    -3.393000000
C     6.610000000     1.452000000    -3.405000000
H     6.646000000     2.072000000    -4.297000000
C     7.333000000     1.661000000    -2.287000000
H     7.916000000     2.578000000    -2.281000000
C     7.371000000     0.784000000    -1.205000000
H     8.030000000     1.040000000    -0.380000000
C     6.465000000    -0.290000000    -1.157000000
C     5.643000000    -0.478000000    -2.253000000
H     4.983000000    -1.341000000    -2.227000000
C     1.788000000    -0.559000000    -0.103000000
H     2.809000000    -0.281000000    -0.355000000
C     0.759000000     0.411000000    -0.085000000
H     0.896000000     1.454000000    -0.360000000
C    -0.591000000     0.064000000     0.253000000
H    -1.376000000     0.817000000     0.145000000
C    -0.913000000    -1.238000000     0.630000000
H    -1.946000000    -1.571000000     0.695000000
C     0.152000000    -2.142000000     0.703000000
H    -0.105000000    -3.152000000     1.010000000
C     1.451000000    -1.836000000     0.302000000
C     2.489000000    -2.924000000     0.010000000
O     2.452000000    -3.980000000     0.599000000
O     3.359000000    -2.738000000    -0.782000000
O     4.711000000    -9.335000000    -0.971000000
H     4.107000000    -8.619000000    -1.167000000
H     4.968000000    -9.190000000    -0.061000000
O     6.764000000    -6.329000000     4.893000000
H     6.560000000    -6.040000000     4.004000000
H     6.037000000    -6.905000000     5.131000000
O     2.034000000    -7.766000000     3.071000000
H     1.858000000    -8.160000000     2.217000000
H     1.858000000    -6.833000000     2.945000000
O     2.495000000    -6.465000000    -0.612000000
H     3.295000000    -6.874000000    -0.283000000
H     2.496000000    -5.590000000    -0.226000000
O    -2.102000000    -8.223000000     1.199000000
H    -1.162000000    -8.067000000     1.108000000
H    -2.206000000    -8.536000000     2.098000000
O     0.081000000    -5.431000000    -2.204000000
H     0.952000000    -5.603000000    -1.847000000
H     0.124000000    -4.527000000    -2.516000000
O     4.235000000    -7.843000000     4.871000000
H     4.572000000    -8.587000000     4.372000000
H     3.433000000    -7.591000000     4.414000000
O     8.165000000    -4.694000000     2.079000000
H     8.666000000    -4.099000000     1.521000000
H     7.940000000    -5.427000000     1.506000000
O     1.059000000    -5.343000000     2.390000000
H     1.592000000    -5.132000000     1.623000000
H     0.367000000    -5.911000000     2.051000000
O     0.696000000    -7.948000000     0.608000000
H     0.612000000    -8.628000000    -0.061000000
H     1.373000000    -7.362000000     0.270000000
O     4.357000000    -4.848000000     2.218000000
H     3.687000000    -4.456000000     1.657000000
H     4.653000000    -4.129000000     2.775000000
O     2.314000000    -3.254000000    -3.345000000
H     2.775000000    -3.015000000    -2.541000000
H     1.605000000    -2.614000000    -3.413000000
O     5.859000000    -3.983000000    -3.560000000
H     5.366000000    -3.792000000    -2.762000000
H     5.255000000    -4.496000000    -4.098000000
O     7.687000000    -4.337000000    -1.541000000
H     6.954000000    -4.377000000    -0.926000000
H     7.276000000    -4.364000000    -2.405000000
O    -1.737000000    -7.116000000    -3.121000000
H    -2.569000000    -6.644000000    -3.087000000
H    -1.112000000    -6.530000000    -2.694000000
O     5.369000000    -4.422000000    -0.478000000
H     5.462000000    -4.488000000     0.473000000
H     4.650000000    -3.804000000    -0.605000000
O     3.258000000    -5.096000000    -5.072000000
H     2.736000000    -5.081000000    -5.874000000
H     2.835000000    -4.458000000    -4.498000000
O     0.209000000    -1.793000000    -2.598000000
H    -0.499000000    -1.365000000    -2.116000000
H     0.991000000    -1.630000000    -2.070000000
O     4.748000000    -7.136000000     0.835000000
H     4.488000000    -6.375000000     1.354000000
H     5.703000000    -7.086000000     0.798000000
