215
-1464.41423
C    -2.816000000    -2.290000000     4.013000000
H    -3.817000000    -1.906000000     3.833000000
C    -1.677000000    -1.518000000     4.206000000
C    -0.399000000    -2.114000000     4.356000000
H     0.466000000    -1.457000000     4.332000000
C    -1.796000000    -0.021000000     4.076000000
O    -3.224000000     0.475000000     3.980000000
H    -1.308000000     0.088000000     3.096000000
O    -1.033000000     0.798000000     4.953000000
C    -0.264000000     1.756000000     4.345000000
C     1.133000000     1.449000000     4.319000000
H     1.477000000     0.488000000     4.693000000
C     1.914000000     2.355000000     3.670000000
O     3.227000000     2.016000000     3.475000000
C     1.434000000     3.555000000     3.086000000
C     2.257000000     4.588000000     2.421000000
H     2.111000000     5.614000000     2.764000000
C     2.313000000     4.334000000     0.947000000
C     1.288000000     4.833000000     0.132000000
H     0.580000000     5.549000000     0.539000000
H     3.265000000     4.424000000     2.808000000
C     0.073000000     3.851000000     3.122000000
H    -0.239000000     4.757000000     2.610000000
C    -0.792000000     2.961000000     3.821000000
C    -2.260000000     3.282000000     3.987000000
H    -2.394000000     4.365000000     3.956000000
H    -2.673000000     2.905000000     4.925000000
C    -3.062000000     2.605000000     2.814000000
C    -3.329000000     3.343000000     1.646000000
H    -3.005000000     4.379000000     1.700000000
C    -3.519000000     1.284000000     2.900000000
C    -4.102000000     0.667000000     1.838000000
H    -4.415000000    -0.363000000     1.994000000
C    -4.369000000     1.386000000     0.675000000
O    -4.768000000     0.594000000    -0.337000000
C    -3.928000000     0.348000000    -1.464000000
C    -4.085000000    -1.088000000    -1.979000000
C    -4.173000000    -1.269000000    -3.370000000
H    -4.260000000    -0.406000000    -4.026000000
C    -4.017000000    -2.259000000    -1.210000000
H    -3.821000000    -2.160000000    -0.145000000
O    -4.086000000     1.366000000    -2.452000000
H    -2.893000000     0.373000000    -1.093000000
C    -3.997000000     2.716000000     0.594000000
C    -4.296000000     3.618000000    -0.637000000
H    -4.477000000     4.630000000    -0.269000000
H    -5.195000000     3.266000000    -1.148000000
C    -3.174000000     3.501000000    -1.660000000
C    -2.160000000     4.412000000    -1.646000000
H    -2.224000000     5.224000000    -0.927000000
C    -3.129000000     2.405000000    -2.507000000
C    -2.050000000     2.219000000    -3.368000000
H    -1.958000000     1.248000000    -3.848000000
C    -1.031000000     3.176000000    -3.340000000
O     0.076000000     2.813000000    -4.106000000
C     1.099000000     2.075000000    -3.404000000
C     1.647000000     0.816000000    -4.133000000
C     0.851000000     0.098000000    -4.982000000
H    -0.121000000     0.521000000    -5.223000000
C     2.758000000     0.183000000    -3.750000000
H     3.368000000     0.731000000    -3.036000000
O     2.091000000     3.070000000    -3.055000000
H     0.616000000     1.725000000    -2.480000000
C    -1.036000000     4.201000000    -2.389000000
C     0.141000000     5.136000000    -2.126000000
H    -0.224000000     6.089000000    -1.735000000
H     0.728000000     5.352000000    -3.021000000
C     1.214000000     4.451000000    -1.195000000
C     2.133000000     3.566000000    -1.725000000
C     3.182000000     3.093000000    -0.952000000
H     3.952000000     2.429000000    -1.336000000
C     3.253000000     3.442000000     0.434000000
O     4.168000000     2.836000000     1.278000000
C     3.614000000     1.683000000     2.108000000
H     2.741000000     1.221000000     1.625000000
C     4.631000000     0.551000000     2.094000000
C     4.605000000    -0.480000000     2.992000000
H     3.838000000    -0.405000000     3.758000000
C     5.564000000     0.482000000     1.045000000
H     5.837000000     1.303000000     0.387000000
C     6.431000000    -0.625000000     0.920000000
O     7.312000000    -0.695000000    -0.109000000
C     6.450000000    -1.579000000     1.939000000
H     7.023000000    -2.488000000     1.776000000
C     5.523000000    -1.538000000     2.949000000
O     5.449000000    -2.609000000     3.850000000
C     4.373000000    -2.840000000     4.618000000
C     3.186000000    -3.400000000     4.163000000
H     3.199000000    -3.650000000     3.105000000
C     4.419000000    -2.559000000     5.987000000
H     5.313000000    -2.103000000     6.405000000
C     3.307000000    -2.640000000     6.845000000
H     3.482000000    -2.328000000     7.872000000
C     2.072000000    -3.097000000     6.312000000
H     1.155000000    -3.132000000     6.894000000
C     2.032000000    -3.491000000     4.980000000
O     0.917000000    -4.115000000     4.541000000
C    -0.312000000    -3.505000000     4.448000000
C    -1.461000000    -4.229000000     4.251000000
H    -1.315000000    -5.290000000     4.064000000
C    -2.705000000    -3.647000000     4.063000000
O    -3.805000000    -4.416000000     3.827000000
C    -4.537000000    -4.389000000     2.644000000
C    -3.910000000    -4.460000000     1.410000000
H    -2.841000000    -4.650000000     1.381000000
C    -6.004000000    -4.444000000     2.761000000
H    -6.440000000    -4.357000000     3.753000000
C    -6.762000000    -4.516000000     1.545000000
H    -7.843000000    -4.562000000     1.644000000
C    -6.124000000    -4.559000000     0.304000000
H    -6.706000000    -4.629000000    -0.611000000
C    -4.693000000    -4.502000000     0.235000000
O    -4.079000000    -4.658000000    -0.995000000
C    -4.121000000    -3.534000000    -1.761000000
C    -4.233000000    -3.678000000    -3.129000000
H    -4.268000000    -4.684000000    -3.539000000
C    -4.341000000    -2.527000000    -3.916000000
O    -4.326000000    -2.680000000    -5.271000000
C    -3.310000000    -2.208000000    -6.051000000
C    -1.946000000    -2.315000000    -5.644000000
H    -1.629000000    -2.901000000    -4.786000000
C    -3.659000000    -1.546000000    -7.240000000
H    -4.707000000    -1.431000000    -7.504000000
C    -2.670000000    -1.064000000    -8.040000000
H    -2.897000000    -0.583000000    -8.988000000
C    -1.341000000    -1.201000000    -7.683000000
H    -0.600000000    -0.876000000    -8.409000000
C    -0.977000000    -1.769000000    -6.464000000
O     0.348000000    -1.938000000    -6.204000000
C     1.112000000    -1.242000000    -5.365000000
C     2.361000000    -1.774000000    -4.972000000
H     2.734000000    -2.754000000    -5.260000000
C     3.193000000    -1.115000000    -4.157000000
O     4.386000000    -1.684000000    -3.731000000
C     5.488000000    -0.962000000    -3.221000000
C     6.186000000    -0.013000000    -3.969000000
H     5.795000000     0.224000000    -4.955000000
C     7.247000000     0.753000000    -3.432000000
H     7.796000000     1.543000000    -3.939000000
C     7.723000000     0.429000000    -2.161000000
H     8.412000000     1.108000000    -1.665000000
C     6.964000000    -0.484000000    -1.429000000
C     5.856000000    -1.098000000    -1.910000000
H     5.205000000    -1.682000000    -1.263000000
C     1.736000000    -1.662000000     0.055000000
H     2.586000000    -2.253000000    -0.273000000
C     1.799000000    -0.291000000    -0.014000000
H     2.716000000     0.205000000    -0.324000000
C     0.581000000     0.383000000     0.222000000
H     0.466000000     1.416000000    -0.022000000
C    -0.569000000    -0.192000000     0.687000000
H    -1.430000000     0.428000000     0.923000000
C    -0.544000000    -1.585000000     0.823000000
H    -1.468000000    -2.058000000     1.146000000
C     0.615000000    -2.393000000     0.531000000
C     0.609000000    -3.913000000     0.772000000
O    -0.431000000    -4.486000000     0.921000000
O     1.678000000    -4.515000000     0.665000000
O     1.980000000    -8.883000000     2.663000000
H     2.528000000    -9.176000000     3.392000000
H     2.122000000    -7.937000000     2.623000000
O    -1.530000000    -7.017000000     0.656000000
H    -1.067000000    -6.191000000     0.516000000
H    -1.399000000    -7.210000000     1.585000000
O     3.514000000    -6.486000000     4.787000000
H     2.923000000    -6.603000000     5.531000000
H     2.938000000    -6.253000000     4.058000000
O    -0.879000000    -7.727000000     3.090000000
H    -0.236000000    -7.018000000     3.124000000
H    -1.477000000    -7.543000000     3.815000000
O     5.627000000    -5.691000000     3.460000000
H     4.854000000    -6.000000000     3.933000000
H     5.981000000    -4.992000000     4.010000000
O     1.119000000    -6.441000000    -0.971000000
H     0.288000000    -6.074000000    -1.272000000
H     1.471000000    -5.780000000    -0.375000000
O    -1.526000000    -5.307000000    -1.874000000
H    -1.469000000    -4.377000000    -2.092000000
H    -2.440000000    -5.439000000    -1.624000000
O     4.119000000    -5.528000000     0.658000000
H     4.475000000    -5.541000000     1.546000000
H     3.253000000    -5.130000000     0.753000000
O    -0.120000000    -9.725000000     0.903000000
H     0.333000000    -9.227000000     1.583000000
H    -0.838000000    -9.156000000     0.627000000
O    -2.612000000    -8.624000000    -1.394000000
H    -2.358000000    -8.300000000    -2.258000000
H    -2.341000000    -7.933000000    -0.789000000
O     1.819000000    -6.008000000     2.904000000
H     1.281000000    -5.471000000     3.486000000
H     1.889000000    -5.493000000     2.100000000
O     0.569000000    -3.436000000    -2.737000000
H     1.037000000    -4.025000000    -3.328000000
H     0.837000000    -3.712000000    -1.861000000
O     4.269000000    -5.104000000    -4.429000000
H     4.472000000    -4.982000000    -3.502000000
H     3.312000000    -5.091000000    -4.468000000
O    -1.396000000    -7.366000000    -3.901000000
H    -1.486000000    -6.848000000    -4.702000000
H    -1.385000000    -6.718000000    -3.197000000
O     5.294000000    -4.689000000    -1.917000000
H     4.970000000    -4.743000000    -1.018000000
H     6.247000000    -4.677000000    -1.828000000
O     1.588000000    -5.798000000    -4.238000000
H     1.730000000    -6.377000000    -3.489000000
H     1.071000000    -6.321000000    -4.850000000
O     5.205000000    -8.924000000    -0.594000000
H     5.368000000    -8.587000000    -1.474000000
H     4.279000000    -8.743000000    -0.435000000
O    -0.674000000    -0.642000000    -2.371000000
H    -0.296000000    -0.668000000    -1.492000000
H    -0.495000000    -1.509000000    -2.735000000
O     2.361000000    -8.994000000    -0.560000000
H     1.772000000    -9.502000000    -0.003000000
H     1.941000000    -8.137000000    -0.634000000
