215
-1435.59976
C    -3.211000000    -2.554000000     2.867000000
H    -4.042000000    -2.042000000     2.389000000
C    -2.147000000    -2.013000000     3.471000000
C    -1.088000000    -2.817000000     3.898000000
H    -0.181000000    -2.411000000     4.337000000
C    -2.021000000    -0.545000000     3.730000000
O    -3.316000000     0.105000000     3.799000000
H    -1.413000000    -0.221000000     2.872000000
O    -1.152000000    -0.236000000     4.910000000
C    -0.231000000     0.791000000     4.721000000
C     1.088000000     0.440000000     4.545000000
H     1.350000000    -0.599000000     4.728000000
C     2.053000000     1.322000000     4.074000000
O     3.298000000     0.879000000     3.899000000
C     1.682000000     2.667000000     3.851000000
C     2.668000000     3.695000000     3.253000000
H     2.421000000     4.752000000     3.378000000
C     2.875000000     3.478000000     1.742000000
C     2.169000000     4.293000000     0.929000000
H     1.440000000     5.014000000     1.293000000
H     3.637000000     3.661000000     3.756000000
C     0.406000000     3.083000000     4.097000000
H     0.059000000     4.084000000     3.853000000
C    -0.563000000     2.122000000     4.432000000
C    -2.012000000     2.509000000     4.563000000
H    -2.099000000     3.538000000     4.919000000
H    -2.541000000     1.892000000     5.292000000
C    -2.652000000     2.353000000     3.162000000
C    -2.782000000     3.377000000     2.242000000
H    -2.401000000     4.368000000     2.477000000
C    -3.404000000     1.177000000     2.942000000
C    -4.064000000     0.959000000     1.743000000
H    -4.513000000    -0.004000000     1.513000000
C    -4.028000000     1.937000000     0.772000000
O    -4.613000000     1.612000000    -0.512000000
C    -3.820000000     1.508000000    -1.671000000
C    -4.224000000     0.278000000    -2.577000000
C    -3.871000000     0.198000000    -3.926000000
H    -3.256000000     0.996000000    -4.334000000
C    -4.911000000    -0.740000000    -1.946000000
H    -5.252000000    -0.780000000    -0.915000000
O    -3.688000000     2.746000000    -2.361000000
H    -2.833000000     1.173000000    -1.321000000
C    -3.461000000     3.172000000     1.024000000
C    -3.425000000     4.313000000     0.013000000
H    -3.394000000     5.329000000     0.414000000
H    -4.315000000     4.308000000    -0.618000000
C    -2.290000000     4.171000000    -0.986000000
C    -1.003000000     4.679000000    -0.698000000
H    -0.831000000     5.397000000     0.099000000
C    -2.548000000     3.427000000    -2.146000000
C    -1.492000000     3.133000000    -3.044000000
H    -1.652000000     2.524000000    -3.930000000
C    -0.205000000     3.600000000    -2.691000000
O     0.896000000     3.134000000    -3.459000000
C     1.750000000     2.125000000    -2.822000000
C     2.054000000     0.989000000    -3.782000000
C     1.419000000     0.873000000    -5.048000000
H     0.746000000     1.665000000    -5.367000000
C     2.996000000     0.069000000    -3.413000000
H     3.337000000     0.206000000    -2.390000000
O     2.934000000     2.769000000    -2.341000000
H     1.232000000     1.639000000    -1.982000000
C     0.040000000     4.350000000    -1.570000000
C     1.382000000     5.004000000    -1.406000000
H     1.343000000     6.023000000    -1.014000000
H     1.871000000     5.040000000    -2.382000000
C     2.164000000     4.093000000    -0.481000000
C     2.975000000     3.109000000    -1.010000000
C     3.745000000     2.366000000    -0.179000000
H     4.394000000     1.593000000    -0.582000000
C     3.746000000     2.519000000     1.190000000
O     4.429000000     1.625000000     1.981000000
C     3.757000000     0.510000000     2.579000000
H     2.935000000     0.382000000     1.860000000
C     4.492000000    -0.793000000     2.457000000
C     4.281000000    -1.897000000     3.243000000
H     3.692000000    -1.684000000     4.132000000
C     5.387000000    -1.091000000     1.311000000
H     5.571000000    -0.225000000     0.680000000
C     6.014000000    -2.290000000     1.119000000
O     6.972000000    -2.406000000     0.075000000
C     5.847000000    -3.364000000     2.025000000
H     6.328000000    -4.335000000     1.937000000
C     4.991000000    -3.125000000     3.093000000
O     4.609000000    -4.119000000     3.885000000
C     3.468000000    -4.207000000     4.588000000
C     2.309000000    -4.581000000     3.976000000
H     2.366000000    -4.853000000     2.925000000
C     3.376000000    -3.663000000     5.866000000
H     4.190000000    -3.399000000     6.536000000
C     2.163000000    -3.734000000     6.570000000
H     2.092000000    -3.357000000     7.587000000
C     0.968000000    -4.101000000     5.980000000
H     0.028000000    -4.180000000     6.521000000
C     1.110000000    -4.590000000     4.704000000
O     0.067000000    -5.030000000     3.964000000
C    -1.052000000    -4.215000000     3.642000000
C    -2.135000000    -4.770000000     3.022000000
H    -2.049000000    -5.808000000     2.712000000
C    -3.213000000    -3.949000000     2.656000000
O    -4.218000000    -4.531000000     1.869000000
C    -5.256000000    -3.871000000     1.267000000
C    -5.148000000    -3.657000000    -0.092000000
H    -4.284000000    -4.028000000    -0.637000000
C    -6.318000000    -3.309000000     1.955000000
H    -6.382000000    -3.530000000     3.017000000
C    -7.400000000    -2.679000000     1.198000000
H    -8.263000000    -2.247000000     1.697000000
C    -7.318000000    -2.621000000    -0.186000000
H    -8.130000000    -2.188000000    -0.765000000
C    -6.197000000    -3.082000000    -0.842000000
O    -6.118000000    -2.838000000    -2.142000000
C    -5.384000000    -1.848000000    -2.693000000
C    -4.956000000    -1.962000000    -4.001000000
H    -5.226000000    -2.839000000    -4.584000000
C    -4.187000000    -0.959000000    -4.683000000
O    -3.866000000    -1.085000000    -5.991000000
C    -2.856000000    -0.431000000    -6.616000000
C    -1.563000000    -0.893000000    -6.465000000
H    -1.461000000    -1.814000000    -5.898000000
C    -3.182000000     0.728000000    -7.253000000
H    -4.211000000     1.073000000    -7.308000000
C    -2.124000000     1.286000000    -7.949000000
H    -2.316000000     2.117000000    -8.622000000
C    -0.811000000     0.800000000    -7.886000000
H     0.073000000     1.313000000    -8.256000000
C    -0.488000000    -0.258000000    -7.029000000
O     0.821000000    -0.572000000    -6.876000000
C     1.581000000    -0.331000000    -5.742000000
C     2.592000000    -1.217000000    -5.471000000
H     2.756000000    -2.104000000    -6.078000000
C     3.340000000    -1.009000000    -4.285000000
O     4.261000000    -1.951000000    -3.881000000
C     5.421000000    -1.607000000    -3.160000000
C     6.144000000    -0.465000000    -3.533000000
H     5.925000000     0.120000000    -4.423000000
C     7.272000000    -0.110000000    -2.805000000
H     7.805000000     0.742000000    -3.218000000
C     7.589000000    -0.815000000    -1.592000000
H     8.559000000    -0.531000000    -1.192000000
C     6.732000000    -1.874000000    -1.180000000
C     5.597000000    -2.241000000    -1.938000000
H     4.911000000    -3.028000000    -1.634000000
C     0.890000000    -1.823000000     0.394000000
H     1.932000000    -2.128000000     0.440000000
C     0.465000000    -0.493000000     0.452000000
H     1.083000000     0.366000000     0.703000000
C    -0.863000000    -0.161000000     0.155000000
H    -1.123000000     0.932000000     0.105000000
C    -1.811000000    -1.184000000    -0.017000000
H    -2.873000000    -0.957000000    -0.070000000
C    -1.337000000    -2.481000000    -0.098000000
H    -2.030000000    -3.317000000    -0.153000000
C     0.031000000    -2.843000000     0.005000000
C     0.486000000    -4.237000000    -0.088000000
O    -0.301000000    -4.998000000    -0.580000000
O     1.556000000    -4.584000000     0.361000000
O    -0.648000000    -9.203000000    -3.784000000
H     0.243000000    -8.859000000    -3.851000000
H    -0.549000000   -10.149000000    -3.894000000
O     5.293000000    -8.000000000     1.568000000
H     5.018000000    -7.261000000     1.025000000
H     5.203000000    -7.683000000     2.467000000
O    -2.605000000    -6.130000000    -0.539000000
H    -1.866000000    -5.522000000    -0.513000000
H    -2.315000000    -6.880000000    -0.018000000
O     1.245000000    -9.915000000     2.477000000
H     0.890000000    -9.088000000     2.802000000
H     1.499000000   -10.393000000     3.267000000
O    -1.319000000    -8.125000000     0.882000000
H    -0.468000000    -7.689000000     0.929000000
H    -1.607000000    -8.186000000     1.793000000
O     1.739000000    -8.057000000    -3.902000000
H     1.713000000    -7.530000000    -3.104000000
H     2.596000000    -8.483000000    -3.880000000
O     1.584000000    -7.278000000    -1.194000000
H     1.069000000    -6.618000000    -0.730000000
H     1.661000000    -8.002000000    -0.572000000
O    -0.071000000    -6.662000000    -5.878000000
H    -0.242000000    -7.387000000    -6.478000000
H     0.414000000    -7.060000000    -5.154000000
O    -1.018000000    -3.870000000    -3.422000000
H    -0.995000000    -4.048000000    -2.482000000
H    -0.794000000    -2.943000000    -3.496000000
O     1.081000000    -7.828000000     4.445000000
H     0.681000000    -7.071000000     4.873000000
H     1.320000000    -8.411000000     5.166000000
O     4.377000000    -5.507000000     0.111000000
H     3.548000000    -5.041000000     0.225000000
H     4.483000000    -5.577000000    -0.838000000
O     3.324000000    -9.731000000     0.503000000
H     2.709000000    -9.645000000     1.231000000
H     4.050000000    -9.151000000     0.733000000
O    -2.434000000   -10.277000000    -0.764000000
H    -2.093000000    -9.446000000    -0.433000000
H    -3.384000000   -10.160000000    -0.771000000
O    -3.220000000    -5.358000000    -3.127000000
H    -2.481000000    -4.857000000    -3.473000000
H    -2.924000000    -5.661000000    -2.269000000
O     1.191000000    -6.903000000     1.554000000
H     1.486000000    -6.167000000     1.018000000
H     1.099000000    -6.536000000     2.434000000
O     2.717000000    -5.242000000    -2.515000000
H     2.252000000    -5.126000000    -3.343000000
H     2.169000000    -5.847000000    -2.015000000
O    -0.725000000    -4.141000000    -6.002000000
H    -0.811000000    -3.962000000    -5.066000000
H    -0.401000000    -5.041000000    -6.044000000
O     5.698000000    -6.107000000    -2.875000000
H     4.996000000    -5.468000000    -2.754000000
H     6.455000000    -5.584000000    -3.139000000
O    -0.365000000    -1.363000000    -2.594000000
H    -0.578000000    -1.061000000    -1.711000000
H     0.568000000    -1.174000000    -2.693000000
