215
-1432.32227
C    -1.937000000    -3.199000000     3.872000000
H    -2.986000000    -2.998000000     3.670000000
C    -1.030000000    -2.199000000     4.131000000
C     0.319000000    -2.526000000     4.270000000
H     1.092000000    -1.779000000     4.435000000
C    -1.384000000    -0.694000000     4.064000000
O    -2.831000000    -0.490000000     4.250000000
H    -1.051000000    -0.290000000     3.097000000
O    -0.546000000     0.150000000     5.009000000
C    -0.120000000     1.371000000     4.463000000
C     1.255000000     1.486000000     4.211000000
H     1.931000000     0.644000000     4.332000000
C     1.823000000     2.531000000     3.561000000
O     3.144000000     2.459000000     3.125000000
C     0.965000000     3.620000000     3.244000000
C     1.660000000     4.778000000     2.560000000
H     1.038000000     5.643000000     2.800000000
C     1.562000000     4.624000000     1.071000000
C     0.452000000     5.041000000     0.291000000
H    -0.433000000     5.465000000     0.758000000
H     2.702000000     4.902000000     2.863000000
C    -0.409000000     3.516000000     3.398000000
H    -1.009000000     4.372000000     3.100000000
C    -0.927000000     2.447000000     4.050000000
C    -2.393000000     2.477000000     4.381000000
H    -2.746000000     3.510000000     4.406000000
H    -2.496000000     2.050000000     5.381000000
C    -3.235000000     1.730000000     3.322000000
C    -3.720000000     2.402000000     2.219000000
H    -3.745000000     3.488000000     2.249000000
C    -3.497000000     0.341000000     3.390000000
C    -4.033000000    -0.339000000     2.272000000
H    -4.241000000    -1.402000000     2.188000000
C    -4.382000000     0.448000000     1.104000000
O    -4.810000000    -0.245000000    -0.002000000
C    -3.900000000    -0.331000000    -1.135000000
C    -3.727000000    -1.831000000    -1.665000000
C    -3.201000000    -2.097000000    -2.915000000
H    -2.802000000    -1.285000000    -3.518000000
C    -4.190000000    -2.922000000    -0.890000000
H    -4.659000000    -2.780000000     0.080000000
O    -4.236000000     0.592000000    -2.216000000
H    -2.910000000    -0.079000000    -0.728000000
C    -4.271000000     1.815000000     1.084000000
C    -4.798000000     2.563000000    -0.034000000
H    -5.154000000     3.486000000     0.427000000
H    -5.709000000     2.146000000    -0.469000000
C    -3.742000000     2.733000000    -1.088000000
C    -2.864000000     3.847000000    -1.006000000
H    -2.974000000     4.556000000    -0.190000000
C    -3.618000000     1.841000000    -2.161000000
C    -2.636000000     2.078000000    -3.098000000
H    -2.546000000     1.350000000    -3.900000000
C    -1.712000000     3.128000000    -3.047000000
O    -0.651000000     3.139000000    -3.857000000
C     0.604000000     2.634000000    -3.401000000
C     1.239000000     1.642000000    -4.398000000
C     0.488000000     0.947000000    -5.335000000
H    -0.578000000     1.156000000    -5.347000000
C     2.631000000     1.417000000    -4.441000000
H     3.269000000     2.049000000    -3.829000000
O     1.355000000     3.848000000    -3.024000000
H     0.389000000     2.080000000    -2.476000000
C    -1.770000000     4.001000000    -1.913000000
C    -0.856000000     5.269000000    -1.777000000
H    -1.358000000     6.072000000    -1.232000000
H    -0.573000000     5.580000000    -2.784000000
C     0.389000000     4.851000000    -1.050000000
C     1.399000000     4.124000000    -1.671000000
C     2.452000000     3.664000000    -0.966000000
H     3.262000000     3.159000000    -1.487000000
C     2.566000000     3.973000000     0.358000000
O     3.648000000     3.433000000     0.978000000
C     3.378000000     2.213000000     1.717000000
H     2.463000000     1.753000000     1.317000000
C     4.419000000     1.129000000     1.554000000
C     4.791000000     0.358000000     2.632000000
H     4.431000000     0.497000000     3.648000000
C     4.914000000     0.924000000     0.313000000
H     4.662000000     1.471000000    -0.592000000
C     5.799000000    -0.153000000     0.112000000
O     6.393000000    -0.367000000    -1.135000000
C     6.172000000    -0.956000000     1.179000000
H     7.007000000    -1.642000000     1.062000000
C     5.685000000    -0.663000000     2.446000000
O     5.971000000    -1.365000000     3.569000000
C     4.975000000    -1.883000000     4.388000000
C     3.983000000    -2.704000000     3.898000000
H     4.120000000    -2.920000000     2.842000000
C     4.860000000    -1.442000000     5.710000000
H     5.493000000    -0.619000000     6.029000000
C     3.862000000    -2.036000000     6.528000000
H     3.635000000    -1.814000000     7.567000000
C     3.108000000    -3.042000000     6.065000000
H     2.211000000    -3.305000000     6.620000000
C     3.073000000    -3.284000000     4.741000000
O     2.113000000    -4.125000000     4.177000000
C     0.746000000    -3.811000000     4.185000000
C    -0.201000000    -4.837000000     4.103000000
H     0.205000000    -5.843000000     4.158000000
C    -1.513000000    -4.561000000     3.913000000
O    -2.390000000    -5.599000000     3.632000000
C    -3.516000000    -5.633000000     2.786000000
C    -3.370000000    -5.481000000     1.399000000
H    -2.453000000    -5.509000000     0.815000000
C    -4.763000000    -5.801000000     3.425000000
H    -4.928000000    -5.800000000     4.499000000
C    -5.940000000    -5.827000000     2.714000000
H    -6.891000000    -6.092000000     3.170000000
C    -5.819000000    -5.607000000     1.363000000
H    -6.721000000    -5.730000000     0.770000000
C    -4.575000000    -5.450000000     0.712000000
O    -4.505000000    -5.342000000    -0.676000000
C    -4.061000000    -4.232000000    -1.404000000
C    -3.602000000    -4.434000000    -2.701000000
H    -3.535000000    -5.427000000    -3.139000000
C    -3.196000000    -3.363000000    -3.458000000
O    -2.755000000    -3.664000000    -4.759000000
C    -2.486000000    -2.615000000    -5.640000000
C    -1.194000000    -2.263000000    -5.959000000
H    -0.368000000    -2.798000000    -5.496000000
C    -3.569000000    -2.201000000    -6.414000000
H    -4.617000000    -2.443000000    -6.255000000
C    -3.288000000    -1.148000000    -7.391000000
H    -4.183000000    -0.811000000    -7.907000000
C    -1.999000000    -0.607000000    -7.542000000
H    -1.783000000     0.182000000    -8.258000000
C    -0.951000000    -1.209000000    -6.860000000
O     0.363000000    -0.769000000    -7.117000000
C     1.089000000     0.041000000    -6.227000000
C     2.409000000    -0.191000000    -6.181000000
H     2.856000000    -0.987000000    -6.772000000
C     3.246000000     0.603000000    -5.385000000
O     4.567000000     0.313000000    -5.454000000
C     5.413000000     0.772000000    -4.428000000
C     6.204000000     1.898000000    -4.608000000
H     6.189000000     2.422000000    -5.560000000
C     7.014000000     2.395000000    -3.600000000
H     7.630000000     3.291000000    -3.622000000
C     7.031000000     1.654000000    -2.409000000
H     7.635000000     1.892000000    -1.538000000
C     6.345000000     0.443000000    -2.265000000
C     5.509000000    -0.025000000    -3.297000000
H     4.971000000    -0.956000000    -3.136000000
C     1.575000000    -0.940000000     0.459000000
H     2.172000000    -1.041000000     1.361000000
C     0.486000000    -0.029000000     0.586000000
H     0.247000000     0.288000000     1.598000000
C    -0.297000000     0.245000000    -0.498000000
H    -1.135000000     0.858000000    -0.441000000
C     0.012000000    -0.371000000    -1.676000000
H    -0.580000000    -0.091000000    -2.544000000
C     1.049000000    -1.329000000    -1.856000000
H     1.226000000    -1.636000000    -2.884000000
C     1.858000000    -1.532000000    -0.747000000
C     3.034000000    -2.478000000    -0.766000000
O     3.327000000    -3.085000000    -1.800000000
O     3.371000000    -3.051000000     0.242000000
O     4.804000000    -7.220000000     1.542000000
H     4.783000000    -7.476000000     2.465000000
H     4.840000000    -8.049000000     1.065000000
O     5.114000000    -3.584000000    -3.713000000
H     4.335000000    -3.429000000    -3.179000000
H     5.517000000    -4.362000000    -3.328000000
O     2.423000000    -5.492000000     1.262000000
H     2.733000000    -4.668000000     0.886000000
H     3.220000000    -6.002000000     1.411000000
O     5.603000000    -2.870000000    -6.515000000
H     5.186000000    -2.900000000    -5.654000000
H     6.341000000    -2.271000000    -6.403000000
O     0.057000000    -6.717000000    -4.216000000
H     0.231000000    -5.865000000    -3.817000000
H     0.665000000    -6.764000000    -4.954000000
O     0.848000000    -8.062000000     2.110000000
H     1.416000000    -7.302000000     2.232000000
H     1.434000000    -8.754000000     1.805000000
O     3.014000000    -7.246000000    -3.150000000
H     2.281000000    -6.630000000    -3.155000000
H     3.441000000    -7.117000000    -3.997000000
O     3.619000000    -9.203000000    -1.033000000
H     3.818000000    -9.865000000    -1.695000000
H     3.385000000    -8.424000000    -1.537000000
O     5.470000000    -4.424000000     1.585000000
H     4.871000000    -3.890000000     1.064000000
H     5.333000000    -5.317000000     1.267000000
O     3.482000000    -6.532000000     4.179000000
H     3.264000000    -5.652000000     3.870000000
H     3.599000000    -6.432000000     5.124000000
O     0.703000000    -7.448000000    -0.746000000
H     0.518000000    -7.635000000     0.174000000
H     0.894000000    -6.510000000    -0.766000000
O     1.304000000    -4.595000000    -2.751000000
H     2.100000000    -4.183000000    -2.416000000
H     0.591000000    -4.083000000    -2.370000000
O     6.796000000    -5.565000000     3.923000000
H     6.253000000    -4.949000000     3.431000000
H     7.020000000    -5.096000000     4.727000000
O    10.211000000    -1.469000000    -1.652000000
H    10.409000000    -0.555000000    -1.857000000
H     9.285000000    -1.568000000    -1.872000000
O     4.921000000    -5.309000000    -1.236000000
H     4.476000000    -4.470000000    -1.118000000
H     4.229000000    -5.912000000    -1.508000000
O    -0.071000000    -4.221000000     0.010000000
H     0.029000000    -3.418000000     0.521000000
H     0.407000000    -4.884000000     0.508000000
O    -1.109000000    -8.414000000    -2.402000000
H    -0.485000000    -7.941000000    -1.851000000
H    -0.760000000    -8.326000000    -3.289000000
O     8.290000000    -3.523000000    -2.936000000
H     7.557000000    -2.908000000    -2.955000000
H     8.082000000    -4.165000000    -3.614000000
O     7.639000000    -5.157000000    -0.177000000
H     8.268000000    -4.598000000    -0.633000000
H     6.858000000    -5.139000000    -0.730000000
