215
-1440.29594
C    -2.629000000    -2.544000000     3.910000000
H    -3.625000000    -2.237000000     3.600000000
C    -1.601000000    -1.570000000     4.133000000
C    -0.320000000    -1.977000000     4.437000000
H     0.493000000    -1.294000000     4.670000000
C    -1.889000000    -0.062000000     3.820000000
O    -3.239000000     0.368000000     4.098000000
H    -1.711000000     0.073000000     2.743000000
O    -1.069000000     0.809000000     4.726000000
C    -0.505000000     1.872000000     4.158000000
C     0.829000000     1.757000000     4.012000000
H     1.300000000     0.849000000     4.379000000
C     1.547000000     2.710000000     3.426000000
O     2.857000000     2.352000000     3.131000000
C     0.956000000     3.908000000     2.923000000
C     1.670000000     4.868000000     2.036000000
H     1.161000000     5.821000000     2.192000000
C     1.733000000     4.399000000     0.601000000
C     0.716000000     4.841000000    -0.236000000
H    -0.141000000     5.310000000     0.241000000
H     2.670000000     5.049000000     2.436000000
C    -0.435000000     3.971000000     3.032000000
H    -0.939000000     4.838000000     2.613000000
C    -1.199000000     2.965000000     3.681000000
C    -2.677000000     3.214000000     3.933000000
H    -2.938000000     4.271000000     3.841000000
H    -3.006000000     2.933000000     4.935000000
C    -3.533000000     2.463000000     2.854000000
C    -3.790000000     3.086000000     1.626000000
H    -3.536000000     4.143000000     1.636000000
C    -3.794000000     1.075000000     3.027000000
C    -4.440000000     0.383000000     1.996000000
H    -4.626000000    -0.681000000     2.116000000
C    -4.684000000     0.976000000     0.771000000
O    -5.068000000     0.144000000    -0.269000000
C    -3.954000000    -0.212000000    -1.122000000
C    -3.858000000    -1.729000000    -1.543000000
C    -3.179000000    -2.027000000    -2.764000000
H    -2.716000000    -1.221000000    -3.326000000
C    -4.382000000    -2.767000000    -0.836000000
H    -4.886000000    -2.551000000     0.103000000
O    -4.107000000     0.619000000    -2.314000000
H    -2.965000000     0.015000000    -0.698000000
C    -4.340000000     2.323000000     0.563000000
C    -4.731000000     3.030000000    -0.727000000
H    -5.136000000     4.040000000    -0.635000000
H    -5.687000000     2.636000000    -1.079000000
C    -3.647000000     2.925000000    -1.803000000
C    -2.655000000     3.889000000    -1.822000000
H    -2.806000000     4.802000000    -1.251000000
C    -3.386000000     1.748000000    -2.478000000
C    -2.274000000     1.628000000    -3.299000000
H    -2.207000000     0.704000000    -3.867000000
C    -1.318000000     2.615000000    -3.413000000
O    -0.243000000     2.314000000    -4.172000000
C     0.942000000     1.894000000    -3.614000000
C     1.734000000     0.978000000    -4.513000000
C     1.124000000     0.331000000    -5.527000000
H     0.063000000     0.468000000    -5.722000000
C     3.079000000     0.654000000    -4.110000000
H     3.634000000     1.089000000    -3.283000000
O     1.692000000     3.093000000    -3.308000000
H     0.752000000     1.374000000    -2.664000000
C    -1.524000000     3.780000000    -2.652000000
C    -0.421000000     4.800000000    -2.577000000
H    -0.757000000     5.825000000    -2.406000000
H     0.046000000     4.877000000    -3.561000000
C     0.734000000     4.452000000    -1.639000000
C     1.725000000     3.577000000    -2.038000000
C     2.782000000     3.176000000    -1.212000000
H     3.511000000     2.426000000    -1.508000000
C     2.796000000     3.606000000     0.112000000
O     3.643000000     3.038000000     0.983000000
C     3.204000000     1.914000000     1.774000000
H     2.306000000     1.494000000     1.297000000
C     4.289000000     0.836000000     1.724000000
C     4.335000000    -0.177000000     2.671000000
H     3.495000000    -0.247000000     3.357000000
C     5.307000000     0.916000000     0.795000000
H     5.353000000     1.769000000     0.123000000
C     6.290000000     0.006000000     0.757000000
O     7.219000000    -0.004000000    -0.198000000
C     6.277000000    -1.089000000     1.591000000
H     6.985000000    -1.912000000     1.555000000
C     5.279000000    -1.191000000     2.569000000
O     5.366000000    -2.191000000     3.569000000
C     4.412000000    -2.217000000     4.544000000
C     3.306000000    -3.020000000     4.311000000
H     3.103000000    -3.488000000     3.351000000
C     4.536000000    -1.456000000     5.706000000
H     5.391000000    -0.809000000     5.884000000
C     3.507000000    -1.468000000     6.701000000
H     3.530000000    -0.956000000     7.660000000
C     2.335000000    -2.206000000     6.357000000
H     1.473000000    -2.155000000     7.018000000
C     2.289000000    -3.001000000     5.195000000
O     1.255000000    -3.827000000     4.996000000
C     0.004000000    -3.359000000     4.584000000
C    -1.027000000    -4.341000000     4.636000000
H    -0.746000000    -5.354000000     4.912000000
C    -2.235000000    -3.897000000     4.161000000
O    -3.190000000    -4.814000000     4.175000000
C    -4.138000000    -5.048000000     3.212000000
C    -3.853000000    -4.982000000     1.848000000
H    -2.859000000    -4.880000000     1.421000000
C    -5.501000000    -5.012000000     3.632000000
H    -5.772000000    -4.812000000     4.666000000
C    -6.526000000    -5.159000000     2.721000000
H    -7.565000000    -4.993000000     2.994000000
C    -6.193000000    -5.115000000     1.322000000
H    -6.987000000    -5.019000000     0.586000000
C    -4.892000000    -5.056000000     0.914000000
O    -4.591000000    -5.146000000    -0.432000000
C    -4.204000000    -4.070000000    -1.211000000
C    -3.600000000    -4.389000000    -2.407000000
H    -3.198000000    -5.394000000    -2.510000000
C    -3.010000000    -3.355000000    -3.153000000
O    -2.149000000    -3.688000000    -4.137000000
C    -1.847000000    -3.041000000    -5.324000000
C    -0.531000000    -2.687000000    -5.596000000
H     0.248000000    -3.037000000    -4.923000000
C    -2.804000000    -2.533000000    -6.155000000
H    -3.832000000    -2.719000000    -5.853000000
C    -2.536000000    -1.831000000    -7.292000000
H    -3.341000000    -1.586000000    -7.980000000
C    -1.222000000    -1.521000000    -7.605000000
H    -0.955000000    -1.078000000    -8.561000000
C    -0.233000000    -1.937000000    -6.743000000
O     1.060000000    -1.588000000    -6.976000000
C     1.774000000    -0.700000000    -6.190000000
C     3.108000000    -0.972000000    -5.887000000
H     3.695000000    -1.699000000    -6.442000000
C     3.793000000    -0.282000000    -4.862000000
O     4.986000000    -0.731000000    -4.469000000
C     5.856000000    -0.013000000    -3.577000000
C     6.521000000     0.997000000    -4.261000000
H     6.421000000     1.120000000    -5.336000000
C     7.374000000     1.803000000    -3.466000000
H     7.896000000     2.659000000    -3.885000000
C     7.588000000     1.433000000    -2.143000000
H     8.396000000     2.009000000    -1.698000000
C     6.942000000     0.369000000    -1.500000000
C     5.970000000    -0.292000000    -2.251000000
H     5.388000000    -1.088000000    -1.794000000
C     2.447000000    -2.081000000     0.477000000
H     3.197000000    -2.683000000     0.984000000
C     1.426000000    -1.456000000     1.130000000
H     1.390000000    -1.463000000     2.217000000
C     0.525000000    -0.603000000     0.509000000
H    -0.325000000    -0.162000000     1.033000000
C     0.637000000    -0.468000000    -0.840000000
H    -0.131000000     0.145000000    -1.304000000
C     1.653000000    -1.144000000    -1.587000000
H     1.658000000    -1.225000000    -2.671000000
C     2.532000000    -1.981000000    -0.911000000
C     3.459000000    -2.920000000    -1.701000000
O     3.538000000    -2.886000000    -2.897000000
O     4.064000000    -3.768000000    -1.020000000
O     3.045000000    -7.760000000    -5.606000000
H     3.867000000    -7.282000000    -5.491000000
H     3.105000000    -8.132000000    -6.486000000
O     7.906000000    -6.367000000     1.099000000
H     7.485000000    -5.551000000     1.368000000
H     7.350000000    -7.055000000     1.464000000
O     5.712000000    -3.416000000    -4.395000000
H     4.988000000    -2.849000000    -4.129000000
H     6.309000000    -3.410000000    -3.646000000
O     3.400000000    -6.016000000     2.020000000
H     2.981000000    -6.856000000     1.834000000
H     3.926000000    -6.178000000     2.802000000
O     7.190000000    -2.764000000    -6.697000000
H     6.587000000    -2.864000000    -5.960000000
H     7.420000000    -3.661000000    -6.941000000
O     2.166000000    -4.589000000    -4.675000000
H     2.589000000    -3.880000000    -4.191000000
H     2.861000000    -5.233000000    -4.811000000
O     2.259000000    -9.130000000    -1.410000000
H     2.653000000    -8.708000000    -0.646000000
H     2.996000000    -9.297000000    -1.997000000
O     8.582000000    -5.328000000    -3.671000000
H     7.871000000    -5.177000000    -3.048000000
H     9.372000000    -5.054000000    -3.205000000
O     4.898000000    -6.551000000    -1.055000000
H     4.646000000    -6.866000000    -0.187000000
H     4.583000000    -5.647000000    -1.083000000
O     5.560000000    -4.575000000     0.928000000
H     5.204000000    -4.085000000     0.187000000
H     4.831000000    -5.115000000     1.232000000
O     6.237000000    -7.943000000    -2.852000000
H     5.532000000    -8.539000000    -3.106000000
H     5.862000000    -7.416000000    -2.146000000
O     1.089000000    -5.252000000    -7.336000000
H     0.494000000    -5.931000000    -7.018000000
H     1.711000000    -5.124000000    -6.620000000
O    -1.447000000    -6.519000000    -0.062000000
H    -1.395000000    -5.568000000    -0.164000000
H    -0.958000000    -6.867000000    -0.808000000
O     0.197000000    -5.447000000    -2.614000000
H     0.105000000    -4.870000000    -1.855000000
H     0.816000000    -4.993000000    -3.186000000
O     6.830000000    -4.250000000    -1.712000000
H     5.941000000    -4.479000000    -1.441000000
H     7.302000000    -4.109000000    -0.891000000
O    -0.140000000    -4.014000000    -0.136000000
H     0.075000000    -3.108000000     0.089000000
H     0.573000000    -4.530000000     0.239000000
O    -0.194000000    -8.108000000    -2.704000000
H     0.543000000    -8.490000000    -2.227000000
H     0.115000000    -7.241000000    -2.968000000
O     5.247000000    -5.970000000    -5.380000000
H     5.349000000    -5.137000000    -4.920000000
H     5.015000000    -5.723000000    -6.275000000
O     8.890000000    -3.413000000     0.029000000
H     8.819000000    -2.460000000     0.097000000
H     9.626000000    -3.556000000    -0.566000000
