215
-1445.57796
C    -1.059000000    -3.653000000     3.091000000
H    -1.972000000    -3.477000000     2.528000000
C    -0.546000000    -2.598000000     3.855000000
C     0.683000000    -2.874000000     4.439000000
H     1.113000000    -2.042000000     4.990000000
C    -1.137000000    -1.188000000     3.966000000
O    -2.538000000    -1.312000000     4.181000000
H    -0.865000000    -0.787000000     2.978000000
O    -0.577000000    -0.397000000     5.009000000
C    -0.370000000     0.977000000     4.821000000
C     1.009000000     1.310000000     4.605000000
H     1.766000000     0.558000000     4.812000000
C     1.323000000     2.507000000     3.957000000
O     2.587000000     2.643000000     3.538000000
C     0.308000000     3.454000000     3.667000000
C     0.657000000     4.732000000     2.990000000
H    -0.222000000     5.353000000     3.177000000
C     0.810000000     4.623000000     1.451000000
C    -0.291000000     5.021000000     0.646000000
H    -1.168000000     5.371000000     1.184000000
H     1.482000000     5.120000000     3.592000000
C    -1.024000000     3.118000000     3.936000000
H    -1.836000000     3.788000000     3.665000000
C    -1.377000000     1.840000000     4.388000000
C    -2.867000000     1.534000000     4.634000000
H    -3.306000000     2.516000000     4.825000000
H    -3.067000000     1.027000000     5.581000000
C    -3.434000000     0.844000000     3.412000000
C    -4.041000000     1.637000000     2.410000000
H    -4.208000000     2.695000000     2.597000000
C    -3.294000000    -0.557000000     3.284000000
C    -3.731000000    -1.152000000     2.107000000
H    -3.704000000    -2.231000000     1.980000000
C    -4.292000000    -0.387000000     1.071000000
O    -4.678000000    -1.033000000    -0.029000000
C    -3.833000000    -0.877000000    -1.164000000
C    -3.792000000    -2.080000000    -2.068000000
C    -3.611000000    -2.012000000    -3.453000000
H    -3.587000000    -1.037000000    -3.933000000
C    -3.861000000    -3.354000000    -1.471000000
H    -3.930000000    -3.472000000    -0.392000000
O    -4.374000000     0.176000000    -2.013000000
H    -2.806000000    -0.594000000    -0.894000000
C    -4.468000000     0.985000000     1.293000000
C    -5.086000000     1.897000000     0.231000000
H    -5.515000000     2.757000000     0.750000000
H    -6.013000000     1.358000000     0.027000000
C    -4.103000000     2.242000000    -0.866000000
C    -3.468000000     3.449000000    -0.759000000
H    -3.586000000     4.070000000     0.125000000
C    -3.859000000     1.448000000    -1.937000000
C    -2.852000000     1.748000000    -2.919000000
H    -2.674000000     1.075000000    -3.753000000
C    -2.173000000     2.995000000    -2.754000000
O    -1.105000000     3.199000000    -3.523000000
C     0.211000000     2.823000000    -3.064000000
C     1.055000000     2.132000000    -4.144000000
C     0.418000000     1.115000000    -4.917000000
H    -0.638000000     0.882000000    -4.806000000
C     2.455000000     2.425000000    -4.425000000
H     3.032000000     3.228000000    -3.972000000
O     0.901000000     3.967000000    -2.576000000
H     0.067000000     2.038000000    -2.308000000
C    -2.534000000     3.847000000    -1.737000000
C    -1.645000000     5.045000000    -1.461000000
H    -2.239000000     5.727000000    -0.850000000
H    -1.444000000     5.483000000    -2.441000000
C    -0.383000000     4.743000000    -0.708000000
C     0.805000000     4.269000000    -1.291000000
C     1.926000000     3.956000000    -0.575000000
H     2.784000000     3.514000000    -1.075000000
C     1.949000000     4.217000000     0.784000000
O     3.043000000     3.779000000     1.435000000
C     2.795000000     2.501000000     2.135000000
H     1.886000000     2.030000000     1.733000000
C     3.922000000     1.429000000     1.775000000
C     4.523000000     0.653000000     2.797000000
H     4.161000000     0.718000000     3.819000000
C     4.397000000     1.289000000     0.492000000
H     3.904000000     1.823000000    -0.316000000
C     5.350000000     0.354000000     0.111000000
O     5.749000000     0.089000000    -1.148000000
C     5.906000000    -0.395000000     1.132000000
H     6.553000000    -1.201000000     0.794000000
C     5.471000000    -0.329000000     2.453000000
O     5.954000000    -1.209000000     3.385000000
C     5.218000000    -1.774000000     4.382000000
C     4.152000000    -2.557000000     4.068000000
H     3.997000000    -2.904000000     3.049000000
C     5.433000000    -1.367000000     5.712000000
H     6.258000000    -0.703000000     5.959000000
C     4.645000000    -1.940000000     6.731000000
H     4.758000000    -1.574000000     7.748000000
C     3.608000000    -2.818000000     6.439000000
H     3.042000000    -3.223000000     7.275000000
C     3.428000000    -3.233000000     5.114000000
O     2.628000000    -4.292000000     4.874000000
C     1.333000000    -4.109000000     4.331000000
C     0.783000000    -5.110000000     3.550000000
H     1.366000000    -5.965000000     3.218000000
C    -0.424000000    -4.874000000     2.936000000
O    -0.954000000    -5.967000000     2.249000000
C    -2.228000000    -6.044000000     1.713000000
C    -2.365000000    -6.063000000     0.359000000
H    -1.474000000    -6.087000000    -0.264000000
C    -3.378000000    -5.824000000     2.514000000
H    -3.212000000    -5.711000000     3.583000000
C    -4.671000000    -5.711000000     1.935000000
H    -5.549000000    -5.726000000     2.576000000
C    -4.796000000    -5.723000000     0.545000000
H    -5.789000000    -5.664000000     0.107000000
C    -3.639000000    -5.922000000    -0.212000000
O    -3.718000000    -5.740000000    -1.649000000
C    -3.693000000    -4.454000000    -2.256000000
C    -3.621000000    -4.398000000    -3.605000000
H    -3.465000000    -5.280000000    -4.220000000
C    -3.550000000    -3.151000000    -4.223000000
O    -3.390000000    -3.127000000    -5.601000000
C    -2.655000000    -2.152000000    -6.307000000
C    -1.301000000    -2.005000000    -6.006000000
H    -0.806000000    -2.595000000    -5.239000000
C    -3.343000000    -1.195000000    -7.024000000
H    -4.422000000    -1.263000000    -7.138000000
C    -2.531000000    -0.244000000    -7.716000000
H    -2.915000000     0.478000000    -8.431000000
C    -1.184000000    -0.208000000    -7.532000000
H    -0.558000000     0.488000000    -8.085000000
C    -0.578000000    -1.021000000    -6.620000000
O     0.764000000    -0.846000000    -6.276000000
C     1.180000000     0.367000000    -5.731000000
C     2.535000000     0.676000000    -6.010000000
H     3.061000000    -0.027000000    -6.651000000
C     3.126000000     1.756000000    -5.404000000
O     4.524000000     1.800000000    -5.546000000
C     5.367000000     1.802000000    -4.485000000
C     6.378000000     2.807000000    -4.344000000
H     6.591000000     3.573000000    -5.086000000
C     7.007000000     2.929000000    -3.089000000
H     7.738000000     3.725000000    -2.968000000
C     6.822000000     2.036000000    -2.029000000
H     7.411000000     2.074000000    -1.116000000
C     5.809000000     1.061000000    -2.181000000
C     5.131000000     0.972000000    -3.352000000
H     4.384000000     0.188000000    -3.445000000
C     2.015000000    -1.337000000     0.103000000
H     2.632000000    -1.771000000     0.885000000
C     0.985000000    -0.376000000     0.275000000
H     0.865000000    -0.050000000     1.306000000
C     0.049000000    -0.015000000    -0.693000000
H    -0.714000000     0.716000000    -0.407000000
C     0.223000000    -0.445000000    -1.982000000
H    -0.608000000    -0.144000000    -2.615000000
C     1.295000000    -1.288000000    -2.268000000
H     1.422000000    -1.666000000    -3.279000000
C     2.206000000    -1.729000000    -1.249000000
C     3.404000000    -2.617000000    -1.600000000
O     3.814000000    -2.517000000    -2.747000000
O     4.047000000    -3.213000000    -0.807000000
O     6.417000000    -2.044000000    -2.804000000
H     5.504000000    -2.184000000    -3.057000000
H     6.386000000    -1.309000000    -2.191000000
O     4.117000000    -2.669000000    -8.148000000
H     4.222000000    -1.749000000    -8.389000000
H     3.933000000    -2.651000000    -7.209000000
O     8.947000000    -2.643000000     1.782000000
H     8.181000000    -3.191000000     1.615000000
H     9.163000000    -2.807000000     2.700000000
O     3.253000000    -5.026000000     1.024000000
H     3.508000000    -4.320000000     0.431000000
H     4.072000000    -5.480000000     1.222000000
O     7.494000000    -7.165000000    -3.543000000
H     7.642000000    -7.936000000    -2.995000000
H     6.552000000    -7.169000000    -3.712000000
O     3.388000000    -2.295000000    -5.420000000
H     2.687000000    -1.656000000    -5.548000000
H     3.484000000    -2.357000000    -4.469000000
O     0.798000000    -5.338000000    -5.387000000
H     1.673000000    -4.970000000    -5.258000000
H     0.598000000    -5.773000000    -4.559000000
O     4.673000000    -7.105000000    -4.016000000
H     4.352000000    -6.333000000    -3.549000000
H     4.136000000    -7.146000000    -4.807000000
O     5.860000000    -6.966000000    -0.156000000
H     6.547000000    -7.410000000    -0.653000000
H     5.438000000    -6.390000000    -0.793000000
O     9.651000000    -4.868000000     0.003000000
H     9.391000000    -4.074000000     0.470000000
H     9.004000000    -4.957000000    -0.697000000
O     6.851000000    -3.741000000     0.582000000
H     6.116000000    -3.396000000     0.076000000
H     6.987000000    -4.623000000     0.236000000
O     0.790000000    -8.752000000     0.657000000
H     0.781000000    -7.812000000     0.473000000
H    -0.022000000    -8.909000000     1.140000000
O     7.972000000    -3.944000000    -5.056000000
H     8.492000000    -3.783000000    -5.843000000
H     7.313000000    -3.249000000    -5.059000000
O     2.180000000    -5.493000000    -3.006000000
H     2.672000000    -4.673000000    -2.996000000
H     1.810000000    -5.561000000    -2.126000000
O     6.543000000    -4.857000000     3.102000000
H     6.628000000    -3.995000000     2.694000000
H     6.511000000    -4.675000000     4.041000000
O     5.321000000    -5.005000000    -2.111000000
H     4.843000000    -4.413000000    -1.529000000
H     5.874000000    -4.428000000    -2.637000000
O     0.981000000    -6.003000000     0.063000000
H     0.441000000    -5.734000000     0.806000000
H     1.832000000    -5.596000000     0.226000000
O     8.499000000    -0.635000000    -4.232000000
H     8.045000000    -0.324000000    -5.015000000
H     7.798000000    -0.930000000    -3.650000000
O     8.451000000    -4.880000000    -2.458000000
H     8.297000000    -4.227000000    -3.140000000
H     7.992000000    -5.661000000    -2.766000000
