215
-1463.62886
C    -0.107000000    -5.108000000     2.198000000
H    -1.193000000    -5.164000000     2.180000000
C     0.501000000    -3.946000000     2.667000000
C     1.907000000    -3.885000000     2.702000000
H     2.453000000    -2.972000000     2.926000000
C    -0.297000000    -2.655000000     3.059000000
O    -1.657000000    -3.079000000     3.333000000
H    -0.238000000    -1.903000000     2.258000000
O     0.306000000    -2.160000000     4.300000000
C     0.365000000    -0.767000000     4.386000000
C     1.500000000    -0.038000000     4.154000000
H     2.444000000    -0.539000000     3.955000000
C     1.529000000     1.372000000     4.227000000
O     2.692000000     2.072000000     3.836000000
C     0.329000000     2.108000000     4.327000000
C     0.273000000     3.664000000     4.262000000
H    -0.567000000     3.988000000     4.880000000
C     0.080000000     4.092000000     2.795000000
C    -1.176000000     4.363000000     2.255000000
H    -2.022000000     4.387000000     2.937000000
H     1.171000000     4.100000000     4.704000000
C    -0.811000000     1.369000000     4.614000000
H    -1.617000000     2.025000000     4.932000000
C    -0.810000000    -0.036000000     4.739000000
C    -2.096000000    -0.771000000     4.993000000
H    -2.809000000    -0.153000000     5.542000000
H    -2.034000000    -1.739000000     5.495000000
C    -2.926000000    -1.024000000     3.731000000
C    -3.957000000    -0.126000000     3.232000000
H    -4.169000000     0.834000000     3.695000000
C    -2.652000000    -2.163000000     2.987000000
C    -3.484000000    -2.555000000     1.915000000
H    -3.399000000    -3.507000000     1.398000000
C    -4.426000000    -1.663000000     1.387000000
O    -4.881000000    -1.948000000     0.116000000
C    -4.069000000    -1.331000000    -0.943000000
C    -3.554000000    -2.169000000    -2.082000000
C    -3.848000000    -1.779000000    -3.444000000
H    -4.448000000    -0.928000000    -3.758000000
C    -2.908000000    -3.442000000    -1.833000000
H    -2.758000000    -3.766000000    -0.806000000
O    -4.774000000    -0.104000000    -1.389000000
H    -3.142000000    -1.019000000    -0.440000000
C    -4.612000000    -0.417000000     1.972000000
C    -5.438000000     0.694000000     1.264000000
H    -5.800000000     1.377000000     2.036000000
H    -6.273000000     0.198000000     0.764000000
C    -4.681000000     1.564000000     0.283000000
C    -4.243000000     2.840000000     0.710000000
H    -4.551000000     3.262000000     1.663000000
C    -4.257000000     1.083000000    -0.943000000
C    -3.448000000     1.790000000    -1.811000000
H    -3.133000000     1.529000000    -2.819000000
C    -3.052000000     3.033000000    -1.370000000
O    -2.179000000     3.739000000    -2.171000000
C    -0.780000000     3.605000000    -1.934000000
C     0.057000000     3.233000000    -3.120000000
C    -0.476000000     2.441000000    -4.127000000
H    -1.515000000     2.141000000    -4.019000000
C     1.453000000     3.539000000    -3.249000000
H     1.933000000     4.103000000    -2.454000000
O    -0.303000000     4.826000000    -1.281000000
H    -0.623000000     2.764000000    -1.243000000
C    -3.337000000     3.543000000    -0.124000000
C    -2.749000000     4.905000000     0.306000000
H    -3.391000000     5.258000000     1.116000000
H    -2.815000000     5.698000000    -0.441000000
C    -1.334000000     4.714000000     0.881000000
C    -0.223000000     4.745000000     0.087000000
C     1.028000000     4.560000000     0.652000000
H     1.905000000     4.656000000     0.017000000
C     1.198000000     4.261000000     2.044000000
O     2.482000000     3.970000000     2.396000000
C     2.774000000     2.532000000     2.444000000
H     1.986000000     1.972000000     1.919000000
C     4.124000000     2.142000000     1.746000000
C     4.707000000     0.850000000     2.048000000
H     4.155000000     0.181000000     2.703000000
C     4.702000000     2.971000000     0.791000000
H     4.272000000     3.915000000     0.465000000
C     5.911000000     2.560000000     0.196000000
O     6.617000000     3.273000000    -0.860000000
C     6.458000000     1.299000000     0.466000000
H     7.419000000     1.037000000     0.032000000
C     5.847000000     0.402000000     1.352000000
O     6.434000000    -0.875000000     1.475000000
C     6.017000000    -1.843000000     2.398000000
C     5.289000000    -2.971000000     1.984000000
H     5.308000000    -3.237000000     0.930000000
C     6.259000000    -1.678000000     3.744000000
H     6.835000000    -0.822000000     4.088000000
C     5.673000000    -2.555000000     4.684000000
H     5.730000000    -2.319000000     5.743000000
C     4.986000000    -3.685000000     4.268000000
H     4.500000000    -4.334000000     4.992000000
C     4.776000000    -3.866000000     2.851000000
O     4.048000000    -4.954000000     2.453000000
C     2.657000000    -4.993000000     2.365000000
C     2.005000000    -6.055000000     1.804000000
H     2.596000000    -6.875000000     1.405000000
C     0.664000000    -6.129000000     1.719000000
O     0.061000000    -7.245000000     1.170000000
C    -0.899000000    -7.285000000     0.204000000
C    -0.815000000    -6.384000000    -0.825000000
H     0.075000000    -5.801000000    -1.050000000
C    -2.057000000    -8.032000000     0.419000000
H    -2.118000000    -8.625000000     1.328000000
C    -3.116000000    -7.963000000    -0.512000000
H    -3.962000000    -8.645000000    -0.468000000
C    -3.069000000    -6.917000000    -1.422000000
H    -3.858000000    -6.761000000    -2.153000000
C    -1.933000000    -6.107000000    -1.597000000
O    -1.806000000    -5.363000000    -2.756000000
C    -2.448000000    -4.152000000    -2.957000000
C    -2.670000000    -3.722000000    -4.216000000
H    -2.217000000    -4.398000000    -4.936000000
C    -3.432000000    -2.562000000    -4.497000000
O    -3.689000000    -2.064000000    -5.824000000
C    -3.352000000    -0.774000000    -6.126000000
C    -2.012000000    -0.274000000    -5.904000000
H    -1.206000000    -0.896000000    -5.525000000
C    -4.321000000     0.039000000    -6.664000000
H    -5.270000000    -0.448000000    -6.873000000
C    -4.094000000     1.400000000    -6.798000000
H    -4.895000000     2.043000000    -7.154000000
C    -2.772000000     1.831000000    -6.728000000
H    -2.452000000     2.839000000    -6.982000000
C    -1.738000000     1.029000000    -6.255000000
O    -0.402000000     1.456000000    -6.324000000
C     0.270000000     2.084000000    -5.264000000
C     1.530000000     2.492000000    -5.382000000
H     2.040000000     2.256000000    -6.313000000
C     2.182000000     3.102000000    -4.337000000
O     3.526000000     3.372000000    -4.499000000
C     4.333000000     4.071000000    -3.586000000
C     4.064000000     5.462000000    -3.329000000
H     3.268000000     5.898000000    -3.927000000
C     4.628000000     5.987000000    -2.202000000
H     4.420000000     7.017000000    -1.925000000
C     5.563000000     5.271000000    -1.446000000
H     6.040000000     5.687000000    -0.562000000
C     5.798000000     3.950000000    -1.730000000
C     5.172000000     3.358000000    -2.781000000
H     5.373000000     2.310000000    -2.990000000
C     1.555000000    -2.410000000    -1.104000000
H     2.185000000    -3.286000000    -0.969000000
C     1.347000000    -1.565000000     0.037000000
H     1.845000000    -1.813000000     0.972000000
C     0.468000000    -0.455000000    -0.049000000
H     0.244000000     0.100000000     0.820000000
C    -0.234000000    -0.273000000    -1.223000000
H    -0.906000000     0.575000000    -1.330000000
C    -0.074000000    -1.144000000    -2.314000000
H    -0.490000000    -0.956000000    -3.300000000
C     0.790000000    -2.188000000    -2.267000000
C     1.070000000    -3.063000000    -3.444000000
O     0.522000000    -2.803000000    -4.509000000
O     1.772000000    -4.096000000    -3.405000000
O    -0.309000000    -6.727000000    -5.337000000
H     0.068000000    -7.585000000    -5.139000000
H    -0.111000000    -6.196000000    -4.566000000
O     4.280000000    -2.566000000    -5.171000000
H     3.582000000    -3.199000000    -5.342000000
H     3.847000000    -1.713000000    -5.221000000
O     2.183000000    -4.425000000    -6.012000000
H     1.983000000    -4.472000000    -5.077000000
H     1.892000000    -3.552000000    -6.276000000
O     7.081000000    -2.511000000    -4.988000000
H     6.167000000    -2.744000000    -5.147000000
H     7.313000000    -2.981000000    -4.187000000
O     3.747000000    -6.253000000    -0.697000000
H     3.781000000    -5.337000000    -0.973000000
H     3.042000000    -6.635000000    -1.221000000
O     1.621000000    -1.049000000    -6.159000000
H     1.078000000    -1.315000000    -5.417000000
H     2.163000000    -0.338000000    -5.816000000
O     2.147000000    -6.676000000    -2.932000000
H     1.901000000    -5.789000000    -3.195000000
H     2.886000000    -6.897000000    -3.499000000
O     3.473000000     0.241000000    -4.454000000
H     3.396000000     0.354000000    -3.506000000
H     4.243000000     0.756000000    -4.695000000
O    -2.649000000    -6.634000000    -7.017000000
H    -3.438000000    -6.965000000    -6.588000000
H    -1.935000000    -6.881000000    -6.429000000
O     5.441000000    -6.159000000    -3.554000000
H     5.791000000    -6.454000000    -2.713000000
H     5.128000000    -5.271000000    -3.384000000
O     4.436000000    -9.116000000    -2.337000000
H     3.964000000    -9.262000000    -3.157000000
H     4.497000000    -8.164000000    -2.263000000
O     5.562000000    -1.204000000    -1.454000000
H     6.269000000    -1.137000000    -0.813000000
H     5.896000000    -0.749000000    -2.227000000
O     4.390000000    -3.681000000    -2.129000000
H     4.747000000    -2.829000000    -1.877000000
H     3.682000000    -3.473000000    -2.738000000
O     2.105000000    -5.198000000    -8.636000000
H     2.203000000    -6.148000000    -8.582000000
H     1.971000000    -4.919000000    -7.730000000
O     4.129000000    -7.167000000    -5.702000000
H     4.517000000    -6.704000000    -4.959000000
H     4.733000000    -7.005000000    -6.426000000
O    -0.074000000    -1.452000000    -8.212000000
H     0.675000000    -1.397000000    -7.618000000
H    -0.524000000    -2.257000000    -7.955000000
O    -0.679000000    -3.861000000    -6.822000000
H    -1.247000000    -4.613000000    -6.657000000
H    -0.168000000    -3.766000000    -6.018000000
O     2.156000000    -7.839000000    -7.618000000
H     2.803000000    -7.741000000    -6.920000000
H     1.442000000    -8.333000000    -7.214000000
O     3.499000000     0.548000000    -1.745000000
H     4.183000000    -0.055000000    -1.454000000
H     2.699000000     0.219000000    -1.336000000
