215
-1488.38781
C    -0.250000000    -5.538000000     1.870000000
H    -1.305000000    -5.690000000     1.653000000
C     0.218000000    -4.410000000     2.536000000
C     1.578000000    -4.143000000     2.679000000
H     1.871000000    -3.190000000     3.110000000
C    -0.834000000    -3.334000000     2.921000000
O    -2.181000000    -3.708000000     2.873000000
H    -0.736000000    -2.529000000     2.177000000
O    -0.643000000    -2.740000000     4.311000000
C    -0.770000000    -1.416000000     4.466000000
C     0.417000000    -0.687000000     4.454000000
H     1.380000000    -1.192000000     4.456000000
C     0.273000000     0.720000000     4.574000000
O     1.474000000     1.468000000     4.504000000
C    -0.973000000     1.342000000     4.594000000
C    -1.046000000     2.866000000     4.633000000
H    -2.003000000     3.124000000     5.091000000
C    -0.913000000     3.494000000     3.225000000
C    -2.076000000     3.694000000     2.568000000
H    -3.026000000     3.469000000     3.047000000
H    -0.361000000     3.354000000     5.330000000
C    -2.148000000     0.640000000     4.574000000
H    -3.102000000     1.155000000     4.497000000
C    -2.055000000    -0.774000000     4.419000000
C    -3.404000000    -1.606000000     4.262000000
H    -4.167000000    -0.980000000     4.728000000
H    -3.357000000    -2.502000000     4.884000000
C    -3.722000000    -1.940000000     2.793000000
C    -4.596000000    -1.129000000     2.066000000
H    -5.088000000    -0.281000000     2.537000000
C    -3.119000000    -3.046000000     2.170000000
C    -3.208000000    -3.187000000     0.792000000
H    -2.695000000    -4.004000000     0.292000000
C    -4.013000000    -2.330000000     0.036000000
O    -3.925000000    -2.484000000    -1.384000000
C    -3.203000000    -1.467000000    -2.076000000
C    -2.474000000    -2.125000000    -3.250000000
C    -2.184000000    -1.406000000    -4.403000000
H    -2.585000000    -0.401000000    -4.511000000
C    -1.909000000    -3.403000000    -3.037000000
H    -2.133000000    -3.950000000    -2.125000000
O    -4.074000000    -0.477000000    -2.533000000
H    -2.374000000    -1.028000000    -1.501000000
C    -4.720000000    -1.369000000     0.683000000
C    -5.555000000    -0.335000000    -0.077000000
H    -6.356000000     0.070000000     0.545000000
H    -6.056000000    -0.729000000    -0.965000000
C    -4.763000000     0.854000000    -0.584000000
C    -4.527000000     2.017000000     0.235000000
H    -4.918000000     2.338000000     1.197000000
C    -4.011000000     0.681000000    -1.788000000
C    -3.207000000     1.687000000    -2.213000000
H    -2.666000000     1.609000000    -3.153000000
C    -2.993000000     2.864000000    -1.476000000
O    -2.118000000     3.737000000    -2.116000000
C    -0.791000000     3.942000000    -1.606000000
C     0.143000000     4.213000000    -2.767000000
C    -0.071000000     3.690000000    -4.029000000
H    -0.898000000     2.991000000    -4.122000000
C     1.356000000     4.920000000    -2.451000000
H     1.583000000     5.264000000    -1.446000000
O    -0.746000000     4.952000000    -0.643000000
H    -0.384000000     3.056000000    -1.097000000
C    -3.635000000     3.031000000    -0.252000000
C    -3.342000000     4.309000000     0.521000000
H    -4.206000000     4.605000000     1.119000000
H    -3.261000000     5.096000000    -0.232000000
C    -2.052000000     4.315000000     1.315000000
C    -0.817000000     4.622000000     0.694000000
C     0.370000000     4.450000000     1.379000000
H     1.339000000     4.693000000     0.951000000
C     0.311000000     3.850000000     2.643000000
O     1.517000000     3.415000000     3.142000000
C     1.754000000     1.965000000     3.168000000
H     1.101000000     1.556000000     2.383000000
C     3.178000000     1.695000000     2.712000000
C     3.924000000     0.689000000     3.309000000
H     3.606000000     0.187000000     4.219000000
C     3.655000000     2.505000000     1.691000000
H     2.986000000     3.247000000     1.262000000
C     4.953000000     2.296000000     1.195000000
O     5.497000000     3.050000000     0.182000000
C     5.646000000     1.240000000     1.712000000
H     6.653000000     1.030000000     1.360000000
C     5.179000000     0.390000000     2.741000000
O     6.052000000    -0.600000000     3.223000000
C     5.543000000    -1.805000000     3.627000000
C     4.990000000    -2.677000000     2.703000000
H     5.083000000    -2.527000000     1.630000000
C     5.523000000    -2.185000000     5.002000000
H     5.860000000    -1.535000000     5.806000000
C     4.976000000    -3.390000000     5.383000000
H     4.779000000    -3.634000000     6.424000000
C     4.442000000    -4.282000000     4.457000000
H     4.004000000    -5.198000000     4.845000000
C     4.465000000    -3.887000000     3.131000000
O     3.928000000    -4.680000000     2.163000000
C     2.527000000    -5.038000000     2.143000000
C     2.102000000    -6.217000000     1.548000000
H     2.781000000    -6.870000000     1.007000000
C     0.724000000    -6.398000000     1.377000000
O     0.329000000    -7.356000000     0.453000000
C    -0.448000000    -7.061000000    -0.643000000
C     0.035000000    -6.274000000    -1.655000000
H     0.976000000    -5.735000000    -1.582000000
C    -1.627000000    -7.798000000    -0.870000000
H    -1.973000000    -8.496000000    -0.111000000
C    -2.435000000    -7.556000000    -2.028000000
H    -3.368000000    -8.097000000    -2.162000000
C    -1.990000000    -6.640000000    -2.923000000
H    -2.539000000    -6.364000000    -3.820000000
C    -0.778000000    -6.070000000    -2.795000000
O    -0.435000000    -5.158000000    -3.822000000
C    -1.007000000    -3.894000000    -3.970000000
C    -0.575000000    -3.150000000    -4.978000000
H     0.086000000    -3.484000000    -5.773000000
C    -1.201000000    -1.961000000    -5.265000000
O    -0.773000000    -1.278000000    -6.354000000
C    -1.036000000     0.083000000    -6.602000000
C    -0.012000000     0.952000000    -6.267000000
H     0.936000000     0.669000000    -5.817000000
C    -2.259000000     0.472000000    -7.134000000
H    -3.018000000    -0.304000000    -7.189000000
C    -2.339000000     1.869000000    -7.405000000
H    -3.291000000     2.320000000    -7.674000000
C    -1.319000000     2.772000000    -7.104000000
H    -1.487000000     3.827000000    -7.304000000
C    -0.130000000     2.273000000    -6.604000000
O     0.882000000     3.167000000    -6.278000000
C     0.931000000     3.854000000    -5.055000000
C     2.061000000     4.603000000    -4.735000000
H     2.881000000     4.606000000    -5.447000000
C     2.220000000     5.132000000    -3.495000000
O     3.390000000     5.792000000    -3.198000000
C     4.093000000     5.768000000    -1.977000000
C     4.380000000     6.901000000    -1.255000000
H     3.923000000     7.808000000    -1.643000000
C     5.017000000     6.781000000     0.019000000
H     5.217000000     7.750000000     0.469000000
C     5.550000000     5.543000000     0.463000000
H     6.138000000     5.400000000     1.366000000
C     5.171000000     4.326000000    -0.292000000
C     4.524000000     4.489000000    -1.558000000
H     4.286000000     3.585000000    -2.113000000
C     1.807000000    -2.733000000    -1.771000000
H     2.387000000    -3.653000000    -1.793000000
C     1.078000000    -2.421000000    -0.637000000
H     1.170000000    -2.939000000     0.314000000
C     0.194000000    -1.328000000    -0.622000000
H    -0.396000000    -1.097000000     0.295000000
C     0.138000000    -0.499000000    -1.675000000
H    -0.478000000     0.393000000    -1.598000000
C     0.777000000    -0.849000000    -2.872000000
H     0.729000000    -0.115000000    -3.673000000
C     1.687000000    -1.930000000    -2.899000000
C     2.607000000    -2.020000000    -4.050000000
O     3.080000000    -0.938000000    -4.460000000
O     2.855000000    -3.059000000    -4.605000000
O     5.936000000    -2.718000000    -8.091000000
H     5.691000000    -1.804000000    -8.238000000
H     6.817000000    -2.791000000    -8.458000000
O     4.325000000    -5.012000000    -6.119000000
H     3.772000000    -5.008000000    -6.900000000
H     3.939000000    -4.347000000    -5.549000000
O     3.524000000    -8.109000000    -4.761000000
H     2.809000000    -8.519000000    -4.274000000
H     3.359000000    -7.170000000    -4.683000000
O     2.374000000    -2.290000000    -7.392000000
H     2.534000000    -2.394000000    -6.454000000
H     3.159000000    -1.853000000    -7.722000000
O     2.253000000    -5.631000000    -4.004000000
H     2.612000000    -4.807000000    -4.333000000
H     1.329000000    -5.606000000    -4.253000000
O     6.155000000     0.861000000    -5.570000000
H     5.567000000     0.826000000    -6.325000000
H     5.993000000     0.042000000    -5.102000000
O     5.577000000    -1.752000000    -5.249000000
H     5.600000000    -2.218000000    -6.085000000
H     4.677000000    -1.858000000    -4.941000000
O     6.363000000    -6.195000000    -4.371000000
H     6.955000000    -6.684000000    -4.942000000
H     5.756000000    -5.760000000    -4.970000000
O     3.505000000     0.937000000    -6.577000000
H     3.442000000     0.366000000    -5.811000000
H     2.855000000     1.622000000    -6.419000000
O     0.929000000    -6.377000000    -6.605000000
H     1.292000000    -7.250000000    -6.451000000
H     1.466000000    -6.017000000    -7.311000000
O     7.476000000    -1.259000000    -3.152000000
H     8.242000000    -0.860000000    -3.566000000
H     6.998000000    -1.666000000    -3.874000000
O     4.579000000    -5.547000000    -1.767000000
H     4.889000000    -4.819000000    -2.307000000
H     3.775000000    -5.838000000    -2.197000000
O     7.295000000    -4.799000000    -6.907000000
H     6.494000000    -4.300000000    -7.068000000
H     7.833000000    -4.221000000    -6.365000000
O     0.109000000    -1.706000000    -9.020000000
H     0.143000000    -1.995000000    -8.108000000
H     0.983000000    -1.894000000    -9.363000000
O     2.643000000    -4.836000000    -8.507000000
H     3.006000000    -4.608000000    -9.362000000
H     2.388000000    -3.996000000    -8.124000000
O     3.155000000     0.452000000    -0.993000000
H     3.042000000    -0.424000000    -1.361000000
H     3.914000000     0.374000000    -0.416000000
O     4.973000000     3.130000000    -4.342000000
H     5.398000000     2.308000000    -4.588000000
H     4.129000000     2.863000000    -3.979000000
O     4.444000000    -0.513000000    -8.731000000
H     4.048000000     0.153000000    -8.169000000
H     4.696000000    -0.040000000    -9.523000000
O     2.862000000     1.518000000    -3.471000000
H     2.924000000     0.650000000    -3.870000000
H     2.800000000     1.346000000    -2.531000000
