215
-1419.59343
C     0.401000000    -5.286000000     1.687000000
H    -0.595000000    -5.554000000     1.343000000
C     0.620000000    -4.214000000     2.534000000
C     1.962000000    -3.954000000     2.911000000
H     2.071000000    -3.090000000     3.561000000
C    -0.556000000    -3.201000000     2.828000000
O    -1.825000000    -3.820000000     2.777000000
H    -0.506000000    -2.415000000     2.059000000
O    -0.365000000    -2.615000000     4.156000000
C    -0.576000000    -1.285000000     4.376000000
C     0.504000000    -0.427000000     4.372000000
H     1.520000000    -0.808000000     4.447000000
C     0.260000000     0.947000000     4.458000000
O     1.356000000     1.769000000     4.393000000
C    -1.030000000     1.428000000     4.513000000
C    -1.307000000     2.940000000     4.617000000
H    -2.292000000     3.106000000     5.058000000
C    -1.291000000     3.618000000     3.223000000
C    -2.445000000     3.687000000     2.355000000
H    -3.421000000     3.282000000     2.610000000
H    -0.585000000     3.458000000     5.250000000
C    -2.112000000     0.575000000     4.762000000
H    -3.160000000     0.861000000     4.812000000
C    -1.920000000    -0.797000000     4.576000000
C    -3.131000000    -1.647000000     4.405000000
H    -4.019000000    -1.137000000     4.784000000
H    -3.021000000    -2.561000000     4.992000000
C    -3.407000000    -1.975000000     2.901000000
C    -4.320000000    -1.209000000     2.206000000
H    -4.665000000    -0.238000000     2.552000000
C    -2.843000000    -3.078000000     2.259000000
C    -3.208000000    -3.430000000     0.913000000
H    -2.709000000    -4.243000000     0.391000000
C    -3.984000000    -2.561000000     0.177000000
O    -3.988000000    -2.752000000    -1.164000000
C    -3.289000000    -1.743000000    -1.995000000
C    -2.604000000    -2.445000000    -3.125000000
C    -2.757000000    -1.933000000    -4.463000000
H    -3.458000000    -1.143000000    -4.719000000
C    -1.811000000    -3.559000000    -2.861000000
H    -1.695000000    -3.949000000    -1.853000000
O    -4.150000000    -0.674000000    -2.443000000
H    -2.536000000    -1.203000000    -1.403000000
C    -4.552000000    -1.438000000     0.835000000
C    -5.512000000    -0.435000000     0.149000000
H    -6.328000000    -0.129000000     0.807000000
H    -6.063000000    -0.925000000    -0.657000000
C    -4.764000000     0.686000000    -0.527000000
C    -4.637000000     1.915000000     0.122000000
H    -5.071000000     2.041000000     1.111000000
C    -4.209000000     0.536000000    -1.866000000
C    -3.473000000     1.556000000    -2.414000000
H    -3.084000000     1.307000000    -3.398000000
C    -3.213000000     2.726000000    -1.762000000
O    -2.154000000     3.570000000    -2.193000000
C    -0.847000000     3.619000000    -1.477000000
C     0.312000000     3.530000000    -2.543000000
C     0.166000000     2.547000000    -3.559000000
H    -0.797000000     2.077000000    -3.745000000
C     1.452000000     4.211000000    -2.491000000
H     1.587000000     4.913000000    -1.672000000
O    -0.832000000     4.768000000    -0.696000000
H    -0.821000000     2.728000000    -0.833000000
C    -3.859000000     2.907000000    -0.533000000
C    -3.629000000     4.166000000     0.269000000
H    -4.473000000     4.261000000     0.955000000
H    -3.683000000     4.990000000    -0.447000000
C    -2.275000000     4.165000000     1.047000000
C    -1.048000000     4.453000000     0.579000000
C     0.055000000     4.491000000     1.439000000
H     1.044000000     4.799000000     1.107000000
C    -0.067000000     4.048000000     2.728000000
O     1.096000000     3.797000000     3.324000000
C     1.534000000     2.485000000     3.118000000
H     0.963000000     1.940000000     2.351000000
C     2.943000000     2.393000000     2.595000000
C     3.637000000     1.168000000     2.536000000
H     3.153000000     0.257000000     2.880000000
C     3.560000000     3.587000000     2.073000000
H     3.094000000     4.569000000     2.078000000
C     4.873000000     3.518000000     1.549000000
O     5.519000000     4.620000000     1.067000000
C     5.573000000     2.312000000     1.683000000
H     6.615000000     2.222000000     1.387000000
C     4.924000000     1.116000000     2.059000000
O     5.596000000    -0.105000000     1.907000000
C     5.390000000    -1.126000000     2.829000000
C     5.074000000    -2.453000000     2.447000000
H     5.041000000    -2.664000000     1.381000000
C     5.689000000    -0.864000000     4.187000000
H     6.097000000     0.122000000     4.393000000
C     5.291000000    -1.748000000     5.170000000
H     5.371000000    -1.591000000     6.242000000
C     4.769000000    -2.995000000     4.749000000
H     4.567000000    -3.801000000     5.449000000
C     4.720000000    -3.288000000     3.413000000
O     4.244000000    -4.535000000     3.079000000
C     3.008000000    -4.855000000     2.636000000
C     2.751000000    -5.874000000     1.748000000
H     3.553000000    -6.521000000     1.402000000
C     1.503000000    -6.060000000     1.268000000
O     1.294000000    -7.032000000     0.263000000
C     0.447000000    -7.038000000    -0.787000000
C     0.517000000    -6.063000000    -1.734000000
H     1.394000000    -5.422000000    -1.697000000
C    -0.577000000    -7.942000000    -0.753000000
H    -0.723000000    -8.649000000     0.059000000
C    -1.552000000    -7.938000000    -1.719000000
H    -2.355000000    -8.662000000    -1.603000000
C    -1.458000000    -7.054000000    -2.783000000
H    -2.264000000    -7.091000000    -3.511000000
C    -0.445000000    -6.111000000    -2.793000000
O    -0.325000000    -5.233000000    -3.802000000
C    -1.137000000    -4.171000000    -3.906000000
C    -1.307000000    -3.690000000    -5.233000000
H    -0.935000000    -4.313000000    -6.043000000
C    -2.118000000    -2.569000000    -5.482000000
O    -2.050000000    -1.945000000    -6.728000000
C    -1.771000000    -0.593000000    -6.741000000
C    -0.552000000    -0.190000000    -6.197000000
H     0.185000000    -0.907000000    -5.845000000
C    -2.745000000     0.305000000    -7.140000000
H    -3.679000000    -0.137000000    -7.477000000
C    -2.519000000     1.678000000    -6.765000000
H    -3.309000000     2.414000000    -6.888000000
C    -1.245000000     2.126000000    -6.359000000
H    -1.131000000     3.172000000    -6.084000000
C    -0.209000000     1.163000000    -6.139000000
O     0.966000000     1.545000000    -5.610000000
C     1.145000000     2.429000000    -4.558000000
C     2.314000000     3.097000000    -4.400000000
H     3.191000000     2.842000000    -4.990000000
C     2.459000000     4.051000000    -3.381000000
O     3.620000000     4.717000000    -3.329000000
C     4.004000000     5.335000000    -2.150000000
C     4.024000000     6.768000000    -2.094000000
H     3.700000000     7.275000000    -3.000000000
C     4.421000000     7.399000000    -0.970000000
H     4.309000000     8.479000000    -1.028000000
C     4.890000000     6.718000000     0.089000000
H     5.224000000     7.276000000     0.960000000
C     4.934000000     5.310000000    -0.004000000
C     4.495000000     4.619000000    -1.090000000
H     4.433000000     3.534000000    -1.061000000
C     2.572000000    -2.641000000    -1.455000000
H     3.382000000    -3.366000000    -1.433000000
C     1.994000000    -2.266000000    -0.244000000
H     2.254000000    -2.841000000     0.642000000
C     0.938000000    -1.406000000    -0.210000000
H     0.455000000    -1.129000000     0.707000000
C     0.409000000    -0.787000000    -1.380000000
H    -0.429000000    -0.094000000    -1.377000000
C     1.130000000    -0.983000000    -2.551000000
H     0.675000000    -0.631000000    -3.473000000
C     2.206000000    -1.906000000    -2.586000000
C     2.774000000    -2.140000000    -3.988000000
O     2.585000000    -1.343000000    -4.877000000
O     3.562000000    -3.062000000    -4.119000000
O     5.101000000    -1.484000000    -8.759000000
H     4.944000000    -2.091000000    -8.036000000
H     4.939000000    -0.618000000    -8.385000000
O     4.475000000    -3.543000000    -6.894000000
H     5.161000000    -4.153000000    -6.621000000
H     4.181000000    -3.133000000    -6.080000000
O     6.800000000    -5.103000000    -1.771000000
H     7.081000000    -4.646000000    -0.979000000
H     6.374000000    -4.428000000    -2.299000000
O     6.781000000    -0.905000000    -6.019000000
H     7.556000000    -0.562000000    -5.574000000
H     6.136000000    -0.201000000    -5.953000000
O     1.402000000    -8.154000000    -4.155000000
H     1.795000000    -7.282000000    -4.123000000
H     0.635000000    -8.092000000    -3.585000000
O     5.078000000    -7.105000000    -2.615000000
H     5.799000000    -6.540000000    -2.338000000
H     4.377000000    -6.498000000    -2.855000000
O     4.197000000    -6.721000000    -5.988000000
H     3.655000000    -7.193000000    -6.620000000
H     5.096000000    -6.915000000    -6.252000000
O     3.659000000     0.188000000    -7.137000000
H     3.120000000    -0.197000000    -6.447000000
H     4.318000000     0.700000000    -6.669000000
O     2.995000000    -5.706000000    -3.868000000
H     3.127000000    -4.761000000    -3.940000000
H     3.487000000    -6.073000000    -4.603000000
O     5.634000000     1.553000000    -5.948000000
H     5.727000000     1.608000000    -4.997000000
H     5.503000000     2.458000000    -6.229000000
O     6.709000000    -0.701000000    -1.742000000
H     6.173000000    -1.489000000    -1.831000000
H     7.035000000    -0.734000000    -0.843000000
O     7.973000000    -5.049000000    -5.394000000
H     7.646000000    -5.815000000    -4.921000000
H     7.284000000    -4.393000000    -5.292000000
O     5.754000000     1.403000000    -3.144000000
H     6.262000000     0.686000000    -2.764000000
H     4.862000000     1.258000000    -2.828000000
O     0.064000000    -5.063000000    -8.379000000
H     0.395000000    -5.856000000    -7.958000000
H     0.787000000    -4.438000000    -8.315000000
O     5.980000000    -3.112000000    -3.625000000
H     6.396000000    -2.368000000    -4.060000000
H     5.048000000    -3.012000000    -3.819000000
O     3.596000000    -4.364000000    -9.624000000
H     3.466000000    -5.303000000    -9.755000000
H     3.909000000    -4.289000000    -8.722000000
O     1.635000000    -0.287000000    -9.449000000
H     2.230000000     0.044000000    -8.777000000
H     1.541000000    -1.218000000    -9.248000000
O     1.542000000    -2.658000000    -7.322000000
H     2.101000000    -3.289000000    -6.867000000
H     1.486000000    -1.913000000    -6.724000000
O     3.154000000     1.026000000    -2.135000000
H     2.556000000     0.492000000    -1.612000000
H     2.613000000     1.362000000    -2.850000000
