215
-1456.00326
C    -0.162000000    -5.048000000     1.616000000
H    -1.230000000    -5.248000000     1.595000000
C     0.197000000    -3.986000000     2.490000000
C     1.504000000    -3.803000000     2.856000000
H     1.763000000    -2.910000000     3.419000000
C    -0.812000000    -2.920000000     2.855000000
O    -2.139000000    -3.372000000     2.696000000
H    -0.740000000    -2.077000000     2.152000000
O    -0.825000000    -2.489000000     4.244000000
C    -1.000000000    -1.129000000     4.502000000
C     0.155000000    -0.333000000     4.532000000
H     1.089000000    -0.883000000     4.449000000
C     0.064000000     1.041000000     4.420000000
O     1.148000000     1.905000000     4.481000000
C    -1.178000000     1.659000000     4.259000000
C    -1.334000000     3.174000000     4.343000000
H    -2.293000000     3.442000000     4.790000000
C    -1.263000000     3.856000000     2.954000000
C    -2.353000000     3.793000000     2.094000000
H    -3.284000000     3.364000000     2.455000000
H    -0.660000000     3.695000000     5.027000000
C    -2.356000000     0.878000000     4.311000000
H    -3.325000000     1.352000000     4.182000000
C    -2.243000000    -0.530000000     4.347000000
C    -3.511000000    -1.334000000     4.062000000
H    -4.366000000    -0.751000000     4.409000000
H    -3.598000000    -2.266000000     4.624000000
C    -3.706000000    -1.645000000     2.554000000
C    -4.455000000    -0.766000000     1.836000000
H    -4.926000000     0.119000000     2.256000000
C    -3.096000000    -2.763000000     2.017000000
C    -3.261000000    -3.006000000     0.617000000
H    -2.816000000    -3.850000000     0.096000000
C    -3.987000000    -2.157000000    -0.154000000
O    -4.095000000    -2.372000000    -1.459000000
C    -3.234000000    -1.626000000    -2.271000000
C    -2.573000000    -2.547000000    -3.357000000
C    -1.989000000    -1.972000000    -4.502000000
H    -2.149000000    -0.913000000    -4.683000000
C    -2.359000000    -3.917000000    -3.154000000
H    -2.709000000    -4.400000000    -2.245000000
O    -3.971000000    -0.545000000    -2.895000000
H    -2.444000000    -1.213000000    -1.628000000
C    -4.598000000    -1.046000000     0.459000000
C    -5.488000000    -0.193000000    -0.363000000
H    -6.404000000     0.071000000     0.170000000
H    -5.928000000    -0.808000000    -1.152000000
C    -4.710000000     0.915000000    -1.022000000
C    -4.565000000     2.166000000    -0.394000000
H    -5.108000000     2.242000000     0.544000000
C    -3.962000000     0.675000000    -2.213000000
C    -3.122000000     1.657000000    -2.746000000
H    -2.505000000     1.373000000    -3.595000000
C    -3.027000000     2.885000000    -2.138000000
O    -1.972000000     3.747000000    -2.502000000
C    -0.749000000     3.732000000    -1.730000000
C     0.438000000     3.732000000    -2.648000000
C     0.405000000     2.822000000    -3.698000000
H    -0.421000000     2.124000000    -3.803000000
C     1.672000000     4.352000000    -2.332000000
H     1.765000000     5.011000000    -1.472000000
O    -0.748000000     4.980000000    -0.954000000
H    -0.662000000     2.889000000    -1.029000000
C    -3.735000000     3.134000000    -0.936000000
C    -3.458000000     4.430000000    -0.162000000
H    -4.306000000     4.585000000     0.508000000
H    -3.323000000     5.312000000    -0.793000000
C    -2.205000000     4.312000000     0.765000000
C    -0.949000000     4.650000000     0.328000000
C     0.130000000     4.588000000     1.174000000
H     1.146000000     4.789000000     0.845000000
C    -0.020000000     4.198000000     2.483000000
O     1.092000000     3.944000000     3.235000000
C     1.593000000     2.554000000     3.278000000
H     1.176000000     1.950000000     2.459000000
C     3.147000000     2.470000000     3.038000000
C     3.756000000     1.256000000     3.301000000
H     3.086000000     0.465000000     3.632000000
C     3.848000000     3.486000000     2.383000000
H     3.389000000     4.443000000     2.147000000
C     5.202000000     3.255000000     2.103000000
O     6.020000000     4.081000000     1.412000000
C     5.837000000     2.047000000     2.398000000
H     6.894000000     1.955000000     2.157000000
C     5.130000000     1.049000000     3.016000000
O     5.742000000    -0.262000000     3.110000000
C     5.095000000    -1.326000000     3.611000000
C     4.539000000    -2.229000000     2.794000000
H     4.341000000    -1.939000000     1.765000000
C     5.333000000    -1.540000000     4.967000000
H     5.743000000    -0.810000000     5.659000000
C     4.972000000    -2.786000000     5.523000000
H     5.210000000    -3.033000000     6.554000000
C     4.511000000    -3.777000000     4.627000000
H     4.379000000    -4.778000000     5.029000000
C     4.265000000    -3.523000000     3.293000000
O     3.695000000    -4.448000000     2.454000000
C     2.425000000    -4.697000000     2.358000000
C     2.114000000    -5.713000000     1.478000000
H     2.904000000    -6.329000000     1.055000000
C     0.839000000    -5.901000000     1.079000000
O     0.637000000    -7.088000000     0.454000000
C    -0.316000000    -7.228000000    -0.551000000
C    -0.486000000    -6.281000000    -1.598000000
H     0.143000000    -5.395000000    -1.614000000
C    -1.085000000    -8.416000000    -0.536000000
H    -1.094000000    -9.118000000     0.294000000
C    -1.926000000    -8.719000000    -1.565000000
H    -2.602000000    -9.570000000    -1.577000000
C    -2.053000000    -7.803000000    -2.592000000
H    -2.746000000    -8.058000000    -3.389000000
C    -1.342000000    -6.622000000    -2.638000000
O    -1.401000000    -5.988000000    -3.861000000
C    -1.584000000    -4.641000000    -4.093000000
C    -1.051000000    -3.994000000    -5.184000000
H    -0.407000000    -4.576000000    -5.838000000
C    -1.283000000    -2.644000000    -5.442000000
O    -0.944000000    -2.048000000    -6.655000000
C    -0.780000000    -0.694000000    -6.867000000
C     0.286000000    -0.105000000    -6.185000000
H     1.021000000    -0.763000000    -5.727000000
C    -1.754000000     0.178000000    -7.350000000
H    -2.585000000    -0.252000000    -7.903000000
C    -1.670000000     1.593000000    -7.190000000
H    -2.525000000     2.192000000    -7.497000000
C    -0.552000000     2.130000000    -6.558000000
H    -0.494000000     3.184000000    -6.298000000
C     0.416000000     1.259000000    -6.122000000
O     1.588000000     1.797000000    -5.639000000
C     1.572000000     2.643000000    -4.505000000
C     2.722000000     3.421000000    -4.226000000
H     3.626000000     3.377000000    -4.829000000
C     2.759000000     4.247000000    -3.120000000
O     3.929000000     4.926000000    -2.927000000
C     4.378000000     5.354000000    -1.681000000
C     3.963000000     6.640000000    -1.252000000
H     3.276000000     7.270000000    -1.811000000
C     4.392000000     7.133000000    -0.014000000
H     4.042000000     8.112000000     0.305000000
C     5.119000000     6.285000000     0.823000000
H     5.522000000     6.642000000     1.767000000
C     5.483000000     4.952000000     0.429000000
C     5.071000000     4.493000000    -0.804000000
H     5.325000000     3.491000000    -1.140000000
C     0.756000000    -2.481000000    -1.907000000
H     0.743000000    -3.519000000    -2.228000000
C     0.064000000    -2.078000000    -0.774000000
H    -0.527000000    -2.785000000    -0.197000000
C     0.064000000    -0.770000000    -0.375000000
H    -0.512000000    -0.449000000     0.485000000
C     0.701000000     0.199000000    -1.140000000
H     0.761000000     1.238000000    -0.826000000
C     1.387000000    -0.168000000    -2.295000000
H     1.998000000     0.557000000    -2.828000000
C     1.476000000    -1.575000000    -2.610000000
C     2.480000000    -1.972000000    -3.623000000
O     3.358000000    -1.232000000    -4.048000000
O     2.557000000    -3.125000000    -3.978000000
O     5.064000000    -3.323000000    -5.090000000
H     5.005000000    -3.623000000    -5.997000000
H     4.165000000    -3.089000000    -4.857000000
O     4.146000000    -4.293000000    -0.957000000
H     3.373000000    -4.853000000    -1.029000000
H     4.108000000    -3.731000000    -1.731000000
O     7.671000000    -2.766000000    -1.506000000
H     6.938000000    -2.371000000    -1.979000000
H     7.317000000    -2.963000000    -0.638000000
O     6.646000000     1.971000000    -4.841000000
H     6.073000000     1.863000000    -4.082000000
H     7.200000000     1.190000000    -4.835000000
O     2.935000000    -8.093000000    -6.357000000
H     2.447000000    -8.385000000    -5.587000000
H     2.948000000    -7.139000000    -6.285000000
O     2.139000000    -2.857000000    -6.870000000
H     2.389000000    -2.600000000    -5.983000000
H     2.753000000    -2.390000000    -7.436000000
O     2.011000000    -5.847000000    -4.765000000
H     2.131000000    -4.898000000    -4.734000000
H     1.069000000    -5.966000000    -4.892000000
O     5.903000000    -1.726000000    -3.116000000
H     5.277000000    -2.136000000    -3.713000000
H     5.580000000    -0.832000000    -3.007000000
O     6.878000000    -5.094000000    -3.383000000
H     7.086000000    -4.561000000    -2.615000000
H     6.171000000    -4.620000000    -3.819000000
O     4.043000000    -0.399000000    -6.653000000
H     4.113000000    -0.470000000    -5.701000000
H     4.883000000    -0.032000000    -6.928000000
O     6.518000000    -3.737000000     0.654000000
H     6.952000000    -4.579000000     0.514000000
H     5.630000000    -3.868000000     0.321000000
O     8.767000000    -2.600000000    -4.642000000
H     7.934000000    -2.943000000    -4.318000000
H     9.350000000    -2.633000000    -3.883000000
O     2.965000000    -7.240000000    -2.255000000
H     2.848000000    -6.775000000    -3.084000000
H     2.550000000    -8.091000000    -2.398000000
O    -0.314000000    -1.579000000    -9.863000000
H    -0.333000000    -1.878000000    -8.953000000
H     0.532000000    -1.879000000   -10.195000000
O     2.444000000    -5.373000000    -8.164000000
H     1.733000000    -5.224000000    -8.788000000
H     2.287000000    -4.738000000    -7.466000000
O     4.887000000     0.930000000    -0.450000000
H     5.357000000     0.196000000    -0.054000000
H     4.857000000     1.594000000     0.239000000
O     5.911000000     1.562000000    -7.906000000
H     6.290000000     0.747000000    -8.236000000
H     5.812000000     1.416000000    -6.965000000
O     3.485000000     0.121000000    -9.538000000
H     3.661000000     0.202000000    -8.601000000
H     3.454000000     1.024000000    -9.855000000
O     4.760000000     0.861000000    -3.137000000
H     3.930000000     0.464000000    -3.402000000
H     4.680000000     0.972000000    -2.189000000
