215
-1471.45806
C     0.180000000    -4.712000000     2.065000000
H    -0.862000000    -4.938000000     1.852000000
C     0.574000000    -3.481000000     2.681000000
C     1.892000000    -3.221000000     2.860000000
H     2.185000000    -2.283000000     3.324000000
C    -0.499000000    -2.495000000     3.151000000
O    -1.763000000    -3.064000000     3.319000000
H    -0.364000000    -1.654000000     2.454000000
O    -0.107000000    -1.937000000     4.429000000
C    -0.311000000    -0.595000000     4.532000000
C     0.755000000     0.252000000     4.452000000
H     1.753000000    -0.174000000     4.398000000
C     0.644000000     1.594000000     4.289000000
O     1.747000000     2.387000000     4.085000000
C    -0.616000000     2.202000000     4.329000000
C    -0.784000000     3.658000000     3.988000000
H    -1.684000000     4.078000000     4.442000000
C    -0.833000000     3.962000000     2.476000000
C    -2.073000000     3.951000000     1.847000000
H    -3.000000000     3.725000000     2.368000000
H     0.039000000     4.236000000     4.413000000
C    -1.748000000     1.469000000     4.602000000
H    -2.750000000     1.877000000     4.500000000
C    -1.611000000     0.017000000     4.673000000
C    -2.935000000    -0.747000000     4.727000000
H    -3.673000000    -0.124000000     5.236000000
H    -2.820000000    -1.575000000     5.430000000
C    -3.476000000    -1.292000000     3.388000000
C    -4.341000000    -0.518000000     2.549000000
H    -4.795000000     0.353000000     3.013000000
C    -2.837000000    -2.416000000     2.816000000
C    -3.178000000    -2.791000000     1.558000000
H    -2.708000000    -3.686000000     1.159000000
C    -4.130000000    -2.107000000     0.800000000
O    -4.386000000    -2.480000000    -0.478000000
C    -3.690000000    -1.787000000    -1.529000000
C    -3.041000000    -2.632000000    -2.578000000
C    -2.300000000    -2.057000000    -3.633000000
H    -2.287000000    -0.973000000    -3.709000000
C    -2.868000000    -4.012000000    -2.398000000
H    -3.449000000    -4.525000000    -1.635000000
O    -4.614000000    -0.892000000    -2.156000000
H    -2.838000000    -1.269000000    -1.063000000
C    -4.725000000    -0.909000000     1.294000000
C    -5.771000000    -0.167000000     0.430000000
H    -6.355000000     0.515000000     1.052000000
H    -6.485000000    -0.815000000    -0.083000000
C    -4.993000000     0.873000000    -0.506000000
C    -4.724000000     2.159000000    -0.003000000
H    -5.063000000     2.513000000     0.967000000
C    -4.472000000     0.456000000    -1.782000000
C    -3.596000000     1.348000000    -2.457000000
H    -2.973000000     0.961000000    -3.259000000
C    -3.467000000     2.670000000    -2.028000000
O    -2.587000000     3.426000000    -2.891000000
C    -1.211000000     3.441000000    -2.422000000
C    -0.185000000     3.430000000    -3.536000000
C    -0.486000000     2.991000000    -4.823000000
H    -1.450000000     2.592000000    -5.129000000
C     1.183000000     3.702000000    -3.216000000
H     1.367000000     4.027000000    -2.195000000
O    -1.013000000     4.702000000    -1.628000000
H    -1.044000000     2.544000000    -1.807000000
C    -3.937000000     3.051000000    -0.780000000
C    -3.552000000     4.368000000    -0.116000000
H    -4.220000000     4.612000000     0.713000000
H    -3.557000000     5.210000000    -0.811000000
C    -2.169000000     4.262000000     0.507000000
C    -0.998000000     4.529000000    -0.233000000
C     0.263000000     4.355000000     0.396000000
H     1.177000000     4.514000000    -0.172000000
C     0.407000000     4.101000000     1.717000000
O     1.620000000     3.921000000     2.363000000
C     2.051000000     2.573000000     2.677000000
H     1.614000000     1.708000000     2.156000000
C     3.518000000     2.342000000     2.439000000
C     4.271000000     1.335000000     3.032000000
H     3.703000000     0.667000000     3.674000000
C     4.160000000     3.158000000     1.533000000
H     3.634000000     3.912000000     0.953000000
C     5.483000000     2.932000000     1.166000000
O     6.118000000     3.684000000     0.148000000
C     6.243000000     2.073000000     1.906000000
H     7.218000000     1.782000000     1.523000000
C     5.642000000     1.240000000     2.840000000
O     6.406000000     0.219000000     3.366000000
C     5.827000000    -0.822000000     3.969000000
C     5.319000000    -1.827000000     3.136000000
H     5.386000000    -1.615000000     2.072000000
C     5.737000000    -1.040000000     5.343000000
H     6.027000000    -0.278000000     6.062000000
C     5.144000000    -2.188000000     5.879000000
H     5.100000000    -2.348000000     6.954000000
C     4.570000000    -3.069000000     5.041000000
H     4.114000000    -3.940000000     5.505000000
C     4.700000000    -2.916000000     3.649000000
O     4.156000000    -3.925000000     2.787000000
C     2.857000000    -4.217000000     2.611000000
C     2.474000000    -5.380000000     1.945000000
H     3.317000000    -6.034000000     1.740000000
C     1.164000000    -5.630000000     1.566000000
O     0.936000000    -6.675000000     0.715000000
C    -0.257000000    -7.037000000     0.110000000
C    -0.532000000    -6.439000000    -1.111000000
H     0.023000000    -5.589000000    -1.498000000
C    -1.024000000    -8.047000000     0.568000000
H    -0.831000000    -8.489000000     1.542000000
C    -2.100000000    -8.498000000    -0.162000000
H    -2.799000000    -9.283000000     0.114000000
C    -2.302000000    -7.940000000    -1.436000000
H    -3.052000000    -8.340000000    -2.114000000
C    -1.592000000    -6.829000000    -1.869000000
O    -1.890000000    -6.181000000    -3.086000000
C    -2.032000000    -4.800000000    -3.193000000
C    -1.292000000    -4.197000000    -4.212000000
H    -0.710000000    -4.846000000    -4.861000000
C    -1.429000000    -2.806000000    -4.461000000
O    -0.664000000    -2.192000000    -5.529000000
C    -0.868000000    -1.083000000    -6.322000000
C     0.030000000     0.009000000    -6.310000000
H     0.864000000     0.240000000    -5.653000000
C    -1.913000000    -1.160000000    -7.237000000
H    -2.693000000    -1.912000000    -7.149000000
C    -2.146000000    -0.056000000    -8.030000000
H    -3.025000000     0.027000000    -8.664000000
C    -1.283000000     1.076000000    -8.088000000
H    -1.560000000     1.910000000    -8.728000000
C    -0.243000000     1.134000000    -7.122000000
O     0.465000000     2.285000000    -7.036000000
C     0.565000000     2.882000000    -5.787000000
C     1.876000000     3.269000000    -5.459000000
H     2.611000000     3.101000000    -6.243000000
C     2.214000000     3.653000000    -4.149000000
O     3.532000000     3.926000000    -3.943000000
C     3.978000000     4.501000000    -2.748000000
C     3.642000000     5.888000000    -2.575000000
H     2.861000000     6.351000000    -3.173000000
C     4.129000000     6.504000000    -1.452000000
H     3.775000000     7.511000000    -1.246000000
C     4.917000000     5.806000000    -0.523000000
H     5.465000000     6.223000000     0.318000000
C     5.302000000     4.453000000    -0.708000000
C     4.712000000     3.810000000    -1.825000000
H     4.965000000     2.760000000    -1.948000000
C     0.759000000    -1.352000000    -2.117000000
H     0.996000000    -2.212000000    -2.738000000
C    -0.235000000    -1.555000000    -1.074000000
H    -0.706000000    -2.521000000    -0.912000000
C    -0.534000000    -0.479000000    -0.228000000
H    -1.298000000    -0.647000000     0.533000000
C     0.043000000     0.735000000    -0.483000000
H    -0.221000000     1.592000000     0.132000000
C     1.123000000     0.878000000    -1.362000000
H     1.753000000     1.761000000    -1.428000000
C     1.498000000    -0.209000000    -2.221000000
C     2.599000000    -0.056000000    -3.153000000
O     3.482000000     0.809000000    -2.945000000
O     2.646000000    -0.771000000    -4.156000000
O     4.804000000     0.332000000    -0.730000000
H     4.247000000     0.516000000    -1.487000000
H     4.199000000     0.014000000    -0.060000000
O     7.312000000    -3.410000000    -1.316000000
H     6.835000000    -3.972000000    -0.705000000
H     6.930000000    -3.608000000    -2.171000000
O     2.384000000    -4.915000000    -3.258000000
H     2.820000000    -5.662000000    -3.667000000
H     2.160000000    -4.339000000    -3.989000000
O     6.903000000     5.779000000    -4.251000000
H     6.252000000     5.313000000    -3.728000000
H     7.077000000     6.581000000    -3.759000000
O     2.061000000    -3.270000000    -5.330000000
H     2.279000000    -2.419000000    -4.950000000
H     1.297000000    -3.098000000    -5.880000000
O     3.698000000    -3.027000000    -1.020000000
H     3.209000000    -3.592000000    -1.618000000
H     4.379000000    -3.593000000    -0.657000000
O     2.798000000    -1.940000000    -8.574000000
H     3.599000000    -2.303000000    -8.951000000
H     3.097000000    -1.426000000    -7.824000000
O     4.184000000    -4.287000000    -6.972000000
H     3.520000000    -3.857000000    -6.433000000
H     4.956000000    -4.335000000    -6.409000000
O     7.085000000     0.448000000    -3.305000000
H     7.021000000    -0.425000000    -3.693000000
H     6.236000000     0.852000000    -3.482000000
O     3.699000000    -0.454000000    -6.588000000
H     3.255000000    -0.467000000    -5.740000000
H     4.427000000     0.155000000    -6.469000000
O     9.510000000    -1.745000000    -2.158000000
H     8.660000000    -2.071000000    -1.863000000
H     9.406000000    -0.794000000    -2.185000000
O     5.179000000     5.475000000    -6.431000000
H     5.652000000     5.175000000    -5.655000000
H     5.835000000     5.472000000    -7.128000000
O     7.631000000     0.389000000    -0.654000000
H     7.527000000     0.707000000    -1.551000000
H     6.746000000     0.149000000    -0.381000000
O     5.139000000    -1.998000000    -3.342000000
H     5.085000000    -2.078000000    -2.390000000
H     4.229000000    -1.920000000    -3.628000000
O     8.508000000     2.043000000    -5.390000000
H     7.961000000     1.690000000    -4.688000000
H     8.449000000     1.392000000    -6.090000000
O     6.088000000    -3.830000000    -5.154000000
H     5.889000000    -3.219000000    -4.444000000
H     6.627000000    -3.323000000    -5.762000000
O     2.719000000    -1.085000000     0.940000000
H     2.556000000    -2.018000000     0.807000000
H     1.942000000    -0.653000000     0.585000000
O     3.962000000     1.778000000    -8.593000000
H     3.950000000     0.854000000    -8.841000000
H     3.945000000     1.770000000    -7.636000000
O     4.746000000     1.752000000    -5.319000000
H     4.221000000     1.483000000    -4.565000000
H     4.704000000     2.709000000    -5.311000000
