215
-1441.83316
C     1.190000000    -4.335000000     1.737000000
H     0.287000000    -4.461000000     1.145000000
C     1.086000000    -3.436000000     2.791000000
C     2.201000000    -3.224000000     3.616000000
H     2.206000000    -2.444000000     4.374000000
C    -0.226000000    -2.683000000     2.986000000
O    -1.386000000    -3.499000000     2.904000000
H    -0.468000000    -1.879000000     2.275000000
O    -0.352000000    -2.068000000     4.349000000
C    -0.630000000    -0.776000000     4.527000000
C     0.398000000     0.142000000     4.504000000
H     1.416000000    -0.187000000     4.315000000
C     0.092000000     1.491000000     4.353000000
O     1.186000000     2.193000000     4.091000000
C    -1.255000000     1.887000000     4.434000000
C    -1.645000000     3.366000000     4.159000000
H    -2.614000000     3.545000000     4.629000000
C    -1.636000000     3.735000000     2.663000000
C    -2.798000000     3.835000000     1.988000000
H    -3.667000000     3.628000000     2.608000000
H    -1.078000000     3.984000000     4.859000000
C    -2.259000000     0.966000000     4.599000000
H    -3.313000000     1.233000000     4.617000000
C    -1.980000000    -0.384000000     4.592000000
C    -2.993000000    -1.464000000     4.451000000
H    -3.823000000    -1.150000000     5.088000000
H    -2.642000000    -2.382000000     4.928000000
C    -3.283000000    -1.919000000     3.037000000
C    -4.272000000    -1.331000000     2.264000000
H    -4.974000000    -0.599000000     2.657000000
C    -2.498000000    -2.892000000     2.409000000
C    -2.727000000    -3.263000000     1.124000000
H    -1.975000000    -3.980000000     0.805000000
C    -3.736000000    -2.773000000     0.386000000
O    -3.671000000    -3.178000000    -0.927000000
C    -3.100000000    -2.252000000    -1.913000000
C    -2.255000000    -3.013000000    -2.966000000
C    -1.822000000    -2.386000000    -4.070000000
H    -2.210000000    -1.383000000    -4.228000000
C    -1.692000000    -4.215000000    -2.603000000
H    -1.969000000    -4.634000000    -1.640000000
O    -4.217000000    -1.440000000    -2.499000000
H    -2.475000000    -1.533000000    -1.363000000
C    -4.482000000    -1.732000000     0.969000000
C    -5.537000000    -1.046000000     0.082000000
H    -6.364000000    -0.647000000     0.673000000
H    -5.981000000    -1.794000000    -0.578000000
C    -4.854000000     0.082000000    -0.737000000
C    -4.812000000     1.318000000    -0.221000000
H    -5.186000000     1.462000000     0.789000000
C    -4.330000000    -0.151000000    -2.032000000
C    -3.702000000     0.892000000    -2.792000000
H    -3.253000000     0.671000000    -3.757000000
C    -3.667000000     2.148000000    -2.146000000
O    -2.948000000     3.173000000    -2.762000000
C    -1.620000000     3.435000000    -2.196000000
C    -0.528000000     3.637000000    -3.280000000
C    -0.640000000     2.995000000    -4.513000000
H    -1.495000000     2.410000000    -4.841000000
C     0.549000000     4.505000000    -3.065000000
H     0.559000000     5.016000000    -2.106000000
O    -1.828000000     4.620000000    -1.385000000
H    -1.361000000     2.605000000    -1.521000000
C    -4.194000000     2.352000000    -0.860000000
C    -4.216000000     3.674000000    -0.107000000
H    -5.110000000     3.842000000     0.497000000
H    -4.347000000     4.443000000    -0.871000000
C    -2.904000000     4.011000000     0.668000000
C    -1.764000000     4.398000000    -0.025000000
C    -0.546000000     4.281000000     0.641000000
H     0.353000000     4.508000000     0.074000000
C    -0.458000000     3.838000000     1.948000000
O     0.795000000     3.782000000     2.497000000
C     1.403000000     2.474000000     2.734000000
H     0.860000000     1.710000000     2.158000000
C     2.826000000     2.398000000     2.240000000
C     3.652000000     1.445000000     2.700000000
H     3.275000000     0.805000000     3.493000000
C     3.255000000     3.263000000     1.274000000
H     2.563000000     3.961000000     0.811000000
C     4.626000000     3.257000000     0.885000000
O     5.105000000     4.025000000    -0.197000000
C     5.482000000     2.289000000     1.367000000
H     6.507000000     2.214000000     1.015000000
C     4.983000000     1.335000000     2.284000000
O     5.902000000     0.432000000     2.810000000
C     5.734000000    -0.492000000     3.864000000
C     5.017000000    -1.670000000     3.633000000
H     4.577000000    -1.835000000     2.653000000
C     6.359000000    -0.305000000     5.115000000
H     7.082000000     0.500000000     5.217000000
C     6.356000000    -1.297000000     6.095000000
H     6.850000000    -1.095000000     7.042000000
C     5.606000000    -2.483000000     5.872000000
H     5.484000000    -3.118000000     6.746000000
C     4.945000000    -2.610000000     4.638000000
O     4.408000000    -3.828000000     4.337000000
C     3.344000000    -3.961000000     3.482000000
C     3.443000000    -4.919000000     2.461000000
H     4.377000000    -5.457000000     2.321000000
C     2.394000000    -5.032000000     1.519000000
O     2.447000000    -5.931000000     0.519000000
C     1.345000000    -6.537000000    -0.133000000
C     0.888000000    -6.072000000    -1.336000000
H     1.192000000    -5.113000000    -1.749000000
C     0.695000000    -7.601000000     0.460000000
H     1.040000000    -7.992000000     1.413000000
C    -0.330000000    -8.265000000    -0.218000000
H    -0.797000000    -9.093000000     0.309000000
C    -0.660000000    -7.809000000    -1.518000000
H    -1.485000000    -8.252000000    -2.069000000
C    -0.057000000    -6.734000000    -2.069000000
O    -0.515000000    -6.281000000    -3.322000000
C    -0.975000000    -4.961000000    -3.578000000
C    -0.703000000    -4.341000000    -4.768000000
H    -0.195000000    -4.904000000    -5.547000000
C    -1.032000000    -3.038000000    -5.016000000
O    -0.685000000    -2.490000000    -6.240000000
C    -0.948000000    -1.177000000    -6.660000000
C    -0.076000000    -0.149000000    -6.254000000
H     0.853000000    -0.474000000    -5.793000000
C    -2.130000000    -0.926000000    -7.280000000
H    -2.739000000    -1.776000000    -7.579000000
C    -2.517000000     0.322000000    -7.631000000
H    -3.442000000     0.535000000    -8.160000000
C    -1.644000000     1.373000000    -7.380000000
H    -1.847000000     2.315000000    -7.884000000
C    -0.422000000     1.124000000    -6.672000000
O     0.411000000     2.170000000    -6.558000000
C     0.456000000     2.973000000    -5.414000000
C     1.529000000     3.839000000    -5.126000000
H     2.204000000     3.984000000    -5.965000000
C     1.575000000     4.575000000    -3.984000000
O     2.666000000     5.398000000    -3.922000000
C     3.098000000     5.752000000    -2.660000000
C     2.794000000     6.909000000    -1.976000000
H     2.094000000     7.651000000    -2.350000000
C     3.223000000     7.155000000    -0.672000000
H     3.035000000     8.101000000    -0.172000000
C     4.029000000     6.179000000    -0.091000000
H     4.487000000     6.362000000     0.878000000
C     4.365000000     5.001000000    -0.780000000
C     3.866000000     4.747000000    -2.072000000
H     3.999000000     3.824000000    -2.631000000
C     0.604000000    -1.861000000    -1.641000000
H     0.588000000    -2.944000000    -1.729000000
C    -0.036000000    -1.170000000    -0.627000000
H    -0.586000000    -1.679000000     0.159000000
C     0.008000000     0.232000000    -0.631000000
H    -0.408000000     0.787000000     0.185000000
C     0.660000000     0.916000000    -1.643000000
H     0.770000000     1.995000000    -1.563000000
C     1.257000000     0.182000000    -2.698000000
H     1.623000000     0.753000000    -3.548000000
C     1.250000000    -1.227000000    -2.706000000
C     2.042000000    -2.019000000    -3.699000000
O     2.823000000    -1.387000000    -4.408000000
O     2.081000000    -3.238000000    -3.625000000
O     5.500000000    -1.323000000    -0.666000000
H     4.744000000    -1.012000000    -0.168000000
H     5.573000000    -2.250000000    -0.437000000
O     2.756000000    -0.836000000     0.939000000
H     2.148000000    -0.505000000     0.279000000
H     2.237000000    -1.453000000     1.455000000
O     7.197000000     2.694000000    -3.656000000
H     6.438000000     2.202000000    -3.343000000
H     6.891000000     3.128000000    -4.452000000
O     2.370000000    -4.517000000    -6.316000000
H     2.265000000    -3.975000000    -7.099000000
H     2.465000000    -3.888000000    -5.601000000
O     2.952000000    -8.578000000    -2.962000000
H     3.505000000    -9.290000000    -2.641000000
H     3.403000000    -7.780000000    -2.684000000
O     3.419000000    -1.721000000    -7.007000000
H     3.188000000    -1.527000000    -6.099000000
H     4.375000000    -1.771000000    -7.005000000
O     4.873000000    -6.807000000    -2.038000000
H     5.588000000    -6.900000000    -2.668000000
H     5.284000000    -6.422000000    -1.265000000
O     1.883000000    -2.799000000    -8.927000000
H     0.966000000    -2.815000000    -8.655000000
H     2.350000000    -2.432000000    -8.177000000
O     6.697000000     0.204000000    -5.530000000
H     5.851000000     0.351000000    -5.107000000
H     7.189000000     1.009000000    -5.368000000
O     8.184000000    -1.541000000    -4.159000000
H     7.804000000    -0.807000000    -4.641000000
H     7.514000000    -2.224000000    -4.195000000
O     4.350000000     1.144000000    -1.369000000
H     4.135000000     1.567000000    -0.538000000
H     4.610000000     0.255000000    -1.126000000
O     5.972000000    -4.179000000    -6.477000000
H     6.707000000    -4.474000000    -5.939000000
H     5.237000000    -4.121000000    -5.866000000
O     5.435000000    -2.527000000    -4.066000000
H     4.708000000    -1.909000000    -4.151000000
H     5.276000000    -2.970000000    -3.232000000
O     2.185000000    -6.980000000    -5.262000000
H     2.190000000    -6.191000000    -5.804000000
H     1.851000000    -6.687000000    -4.415000000
O     6.254000000    -1.622000000    -7.513000000
H     6.154000000    -2.538000000    -7.253000000
H     6.712000000    -1.213000000    -6.780000000
O     4.198000000    -4.170000000    -2.263000000
H     3.443000000    -4.016000000    -2.831000000
H     4.528000000    -5.028000000    -2.530000000
O     6.011000000    -4.142000000    -0.189000000
H     5.458000000    -3.928000000    -0.940000000
H     6.700000000    -4.700000000    -0.549000000
O     2.757000000     1.933000000    -8.506000000
H     2.194000000     1.813000000    -9.270000000
H     2.163000000     2.224000000    -7.814000000
O     4.590000000     1.107000000    -4.038000000
H     3.856000000     0.536000000    -4.262000000
H     4.496000000     1.261000000    -3.098000000
