215
-1427.01430
C     1.813000000    -4.685000000     1.953000000
H     1.032000000    -5.423000000     2.119000000
C     1.677000000    -3.345000000     2.329000000
C     2.806000000    -2.494000000     2.251000000
H     2.745000000    -1.433000000     2.479000000
C     0.338000000    -2.805000000     2.930000000
O    -0.624000000    -3.783000000     3.329000000
H    -0.146000000    -2.120000000     2.217000000
O     0.664000000    -1.982000000     4.078000000
C    -0.017000000    -0.795000000     4.278000000
C     0.657000000     0.341000000     4.137000000
H     1.736000000     0.229000000     4.055000000
C     0.068000000     1.561000000     4.176000000
O     0.974000000     2.581000000     3.873000000
C    -1.282000000     1.707000000     4.367000000
C    -1.989000000     3.055000000     4.342000000
H    -2.895000000     2.963000000     4.944000000
C    -2.283000000     3.473000000     2.960000000
C    -3.474000000     3.140000000     2.294000000
H    -4.247000000     2.605000000     2.840000000
H    -1.369000000     3.792000000     4.856000000
C    -1.987000000     0.561000000     4.670000000
H    -3.049000000     0.583000000     4.898000000
C    -1.373000000    -0.709000000     4.554000000
C    -2.264000000    -1.947000000     4.762000000
H    -3.168000000    -1.665000000     5.306000000
H    -1.811000000    -2.713000000     5.395000000
C    -2.670000000    -2.573000000     3.389000000
C    -3.821000000    -2.116000000     2.757000000
H    -4.359000000    -1.260000000     3.158000000
C    -1.893000000    -3.572000000     2.789000000
C    -2.157000000    -4.041000000     1.510000000
H    -1.494000000    -4.744000000     1.012000000
C    -3.259000000    -3.552000000     0.869000000
O    -3.502000000    -3.920000000    -0.428000000
C    -2.959000000    -3.034000000    -1.483000000
C    -2.104000000    -3.770000000    -2.468000000
C    -1.791000000    -3.208000000    -3.700000000
H    -2.323000000    -2.328000000    -4.052000000
C    -1.553000000    -5.083000000    -2.121000000
H    -1.769000000    -5.544000000    -1.160000000
O    -4.111000000    -2.310000000    -1.999000000
H    -2.359000000    -2.276000000    -0.959000000
C    -4.085000000    -2.551000000     1.432000000
C    -5.269000000    -2.017000000     0.659000000
H    -6.140000000    -1.808000000     1.283000000
H    -5.675000000    -2.749000000    -0.042000000
C    -4.856000000    -0.814000000    -0.180000000
C    -4.953000000     0.494000000     0.262000000
H    -5.345000000     0.661000000     1.262000000
C    -4.334000000    -1.082000000    -1.471000000
C    -3.912000000    -0.008000000    -2.195000000
H    -3.556000000    -0.231000000    -3.198000000
C    -3.980000000     1.316000000    -1.722000000
O    -3.205000000     2.269000000    -2.426000000
C    -2.117000000     2.927000000    -1.816000000
C    -0.987000000     3.225000000    -2.881000000
C    -0.648000000     2.128000000    -3.777000000
H    -1.170000000     1.175000000    -3.732000000
C    -0.315000000     4.436000000    -2.916000000
H    -0.456000000     5.166000000    -2.123000000
O    -2.513000000     4.118000000    -1.123000000
H    -1.684000000     2.243000000    -1.071000000
C    -4.590000000     1.580000000    -0.522000000
C    -4.774000000     2.966000000     0.095000000
H    -5.685000000     2.936000000     0.697000000
H    -4.913000000     3.665000000    -0.733000000
C    -3.573000000     3.422000000     0.942000000
C    -2.555000000     4.106000000     0.274000000
C    -1.433000000     4.379000000     0.881000000
H    -0.766000000     5.065000000     0.366000000
C    -1.253000000     4.047000000     2.185000000
O    -0.054000000     4.333000000     2.714000000
C     0.967000000     3.295000000     2.663000000
H     0.556000000     2.542000000     1.974000000
C     2.388000000     3.739000000     2.165000000
C     3.497000000     2.874000000     2.469000000
H     3.399000000     2.021000000     3.136000000
C     2.532000000     4.860000000     1.313000000
H     1.668000000     5.491000000     1.117000000
C     3.786000000     5.169000000     0.822000000
O     3.995000000     6.285000000     0.130000000
C     4.893000000     4.400000000     1.179000000
H     5.891000000     4.793000000     1.004000000
C     4.738000000     3.299000000     1.982000000
O     5.778000000     2.535000000     2.380000000
C     5.821000000     1.189000000     2.749000000
C     5.284000000     0.191000000     1.879000000
H     4.813000000     0.467000000     0.939000000
C     6.361000000     0.827000000     3.950000000
H     6.709000000     1.617000000     4.610000000
C     6.577000000    -0.519000000     4.281000000
H     7.036000000    -0.724000000     5.245000000
C     6.142000000    -1.542000000     3.376000000
H     6.173000000    -2.580000000     3.696000000
C     5.498000000    -1.163000000     2.192000000
O     4.966000000    -2.083000000     1.277000000
C     3.971000000    -2.924000000     1.673000000
C     4.133000000    -4.274000000     1.291000000
H     5.035000000    -4.546000000     0.749000000
C     2.964000000    -5.128000000     1.396000000
O     3.128000000    -6.440000000     1.035000000
C     2.133000000    -7.121000000     0.397000000
C     1.660000000    -6.605000000    -0.807000000
H     2.164000000    -5.735000000    -1.219000000
C     1.580000000    -8.210000000     0.965000000
H     2.060000000    -8.608000000     1.855000000
C     0.416000000    -8.839000000     0.489000000
H     0.002000000    -9.750000000     0.913000000
C    -0.104000000    -8.371000000    -0.700000000
H    -0.950000000    -8.794000000    -1.234000000
C     0.518000000    -7.292000000    -1.351000000
O    -0.024000000    -6.895000000    -2.573000000
C    -0.648000000    -5.689000000    -2.953000000
C    -0.331000000    -5.037000000    -4.219000000
H     0.245000000    -5.655000000    -4.902000000
C    -0.860000000    -3.806000000    -4.568000000
O    -0.526000000    -3.242000000    -5.767000000
C    -0.771000000    -1.931000000    -6.117000000
C     0.053000000    -0.889000000    -5.683000000
H     0.878000000    -1.075000000    -5.000000000
C    -1.825000000    -1.607000000    -6.943000000
H    -2.524000000    -2.312000000    -7.386000000
C    -2.040000000    -0.288000000    -7.378000000
H    -2.819000000     0.060000000    -8.051000000
C    -1.167000000     0.705000000    -7.033000000
H    -1.213000000     1.749000000    -7.331000000
C    -0.113000000     0.386000000    -6.129000000
O     0.675000000     1.394000000    -5.692000000
C     0.335000000     2.381000000    -4.749000000
C     0.954000000     3.649000000    -4.858000000
H     1.772000000     3.823000000    -5.552000000
C     0.732000000     4.594000000    -3.832000000
O     1.480000000     5.793000000    -3.936000000
C     1.859000000     6.567000000    -2.930000000
C     1.675000000     7.966000000    -3.017000000
H     1.014000000     8.399000000    -3.763000000
C     2.213000000     8.825000000    -2.044000000
H     2.140000000     9.903000000    -2.161000000
C     2.963000000     8.261000000    -0.975000000
H     3.442000000     9.008000000    -0.347000000
C     3.204000000     6.858000000    -0.882000000
C     2.627000000     6.024000000    -1.859000000
H     2.797000000     4.952000000    -1.918000000
C     1.232000000    -0.627000000    -1.194000000
H     1.313000000    -1.676000000    -1.468000000
C     0.274000000    -0.148000000    -0.289000000
H    -0.362000000    -0.817000000     0.284000000
C     0.209000000     1.175000000     0.062000000
H    -0.473000000     1.459000000     0.826000000
C     0.933000000     2.123000000    -0.631000000
H     0.866000000     3.178000000    -0.378000000
C     1.821000000     1.710000000    -1.550000000
H     2.477000000     2.459000000    -1.987000000
C     2.101000000     0.352000000    -1.765000000
C     3.222000000    -0.011000000    -2.660000000
O     3.949000000     0.857000000    -3.136000000
O     3.469000000    -1.128000000    -2.992000000
O     5.290000000     2.542000000    -1.144000000
H     4.454000000     2.693000000    -0.703000000
H     5.064000000     2.020000000    -1.914000000
O     6.445000000    -0.855000000    -0.898000000
H     5.840000000    -1.415000000    -1.384000000
H     6.239000000    -1.021000000     0.022000000
O     6.924000000     2.519000000    -5.833000000
H     7.146000000     2.705000000    -6.745000000
H     6.503000000     1.660000000    -5.859000000
O     6.066000000    -4.213000000    -5.097000000
H     6.375000000    -4.955000000    -4.576000000
H     6.742000000    -4.089000000    -5.762000000
O     3.127000000    -2.522000000    -5.373000000
H     3.024000000    -1.598000000    -5.603000000
H     3.167000000    -2.527000000    -4.417000000
O     3.901000000     0.009000000    -5.881000000
H     4.613000000    -0.628000000    -5.940000000
H     3.892000000     0.273000000    -4.961000000
O     5.661000000    -5.783000000    -2.020000000
H     5.282000000    -4.907000000    -2.090000000
H     6.114000000    -5.781000000    -1.176000000
O     2.133000000    -2.717000000    -8.013000000
H     2.593000000    -2.014000000    -8.471000000
H     2.592000000    -2.800000000    -7.178000000
O     9.106000000    -0.621000000    -4.511000000
H     8.231000000    -0.236000000    -4.456000000
H     9.019000000    -1.321000000    -5.159000000
O     8.586000000    -3.177000000    -1.187000000
H     7.914000000    -2.559000000    -0.900000000
H     8.834000000    -3.647000000    -0.391000000
O     6.204000000    -1.727000000    -6.771000000
H     5.799000000    -2.381000000    -6.202000000
H     7.139000000    -1.780000000    -6.571000000
O     6.546000000     0.070000000    -3.445000000
H     5.624000000     0.318000000    -3.518000000
H     6.690000000    -0.043000000    -2.505000000
O     7.844000000     3.483000000    -1.025000000
H     8.119000000     2.705000000    -0.541000000
H     6.924000000     3.323000000    -1.234000000
O     4.155000000    -1.152000000    -8.788000000
H     4.765000000    -1.226000000    -8.054000000
H     4.717000000    -1.049000000    -9.556000000
O     3.264000000    -5.420000000    -5.863000000
H     3.175000000    -4.501000000    -5.610000000
H     4.103000000    -5.463000000    -6.321000000
O     4.338000000     1.918000000    -7.901000000
H     5.263000000     1.722000000    -8.044000000
H     4.024000000     1.203000000    -7.347000000
O     4.280000000     4.361000000    -6.805000000
H     4.279000000     4.129000000    -5.876000000
H     4.202000000     3.523000000    -7.261000000
O     5.181000000    -3.065000000    -2.622000000
H     4.503000000    -2.401000000    -2.746000000
H     5.445000000    -3.305000000    -3.510000000
O     4.477000000     3.898000000    -4.196000000
H     4.628000000     2.979000000    -3.978000000
H     4.838000000     4.383000000    -3.454000000
