215
-1439.83258
C     0.425000000    -4.449000000     1.693000000
H    -0.427000000    -4.411000000     1.019000000
C     0.535000000    -3.601000000     2.810000000
C     1.772000000    -3.451000000     3.474000000
H     1.860000000    -2.783000000     4.326000000
C    -0.603000000    -2.628000000     3.002000000
O    -1.894000000    -3.256000000     2.799000000
H    -0.475000000    -1.865000000     2.220000000
O    -0.565000000    -2.051000000     4.303000000
C    -0.784000000    -0.716000000     4.492000000
C     0.305000000     0.098000000     4.626000000
H     1.303000000    -0.330000000     4.662000000
C     0.106000000     1.496000000     4.497000000
O     1.207000000     2.301000000     4.315000000
C    -1.163000000     2.056000000     4.323000000
C    -1.336000000     3.580000000     4.022000000
H    -2.357000000     3.884000000     4.265000000
C    -1.110000000     3.948000000     2.546000000
C    -2.254000000     4.142000000     1.761000000
H    -3.234000000     4.056000000     2.224000000
H    -0.708000000     4.193000000     4.672000000
C    -2.245000000     1.230000000     4.254000000
H    -3.252000000     1.606000000     4.091000000
C    -2.061000000    -0.125000000     4.359000000
C    -3.279000000    -1.034000000     4.148000000
H    -4.200000000    -0.516000000     4.423000000
H    -3.150000000    -1.980000000     4.678000000
C    -3.566000000    -1.464000000     2.752000000
C    -4.435000000    -0.683000000     2.042000000
H    -4.887000000     0.226000000     2.431000000
C    -2.950000000    -2.548000000     2.181000000
C    -3.182000000    -2.875000000     0.836000000
H    -2.644000000    -3.682000000     0.344000000
C    -4.135000000    -2.181000000     0.191000000
O    -4.295000000    -2.490000000    -1.165000000
C    -3.522000000    -1.830000000    -2.188000000
C    -2.977000000    -2.764000000    -3.323000000
C    -2.538000000    -2.203000000    -4.475000000
H    -2.727000000    -1.155000000    -4.690000000
C    -2.618000000    -4.106000000    -3.042000000
H    -2.785000000    -4.450000000    -2.025000000
O    -4.286000000    -0.708000000    -2.780000000
H    -2.712000000    -1.410000000    -1.573000000
C    -4.640000000    -1.041000000     0.703000000
C    -5.544000000    -0.146000000    -0.164000000
H    -6.337000000     0.302000000     0.438000000
H    -6.171000000    -0.813000000    -0.759000000
C    -4.817000000     0.891000000    -1.043000000
C    -4.516000000     2.130000000    -0.497000000
H    -5.117000000     2.309000000     0.391000000
C    -4.205000000     0.515000000    -2.175000000
C    -3.302000000     1.390000000    -2.821000000
H    -2.682000000     1.048000000    -3.646000000
C    -2.985000000     2.643000000    -2.285000000
O    -2.073000000     3.453000000    -2.900000000
C    -0.757000000     3.458000000    -2.257000000
C     0.369000000     3.334000000    -3.278000000
C     0.198000000     2.658000000    -4.490000000
H    -0.808000000     2.435000000    -4.838000000
C     1.692000000     3.673000000    -2.919000000
H     1.911000000     3.908000000    -1.880000000
O    -0.661000000     4.650000000    -1.517000000
H    -0.653000000     2.645000000    -1.524000000
C    -3.699000000     3.113000000    -1.127000000
C    -3.435000000     4.486000000    -0.522000000
H    -4.222000000     4.741000000     0.191000000
H    -3.402000000     5.260000000    -1.292000000
C    -2.134000000     4.454000000     0.357000000
C    -0.842000000     4.644000000    -0.198000000
C     0.279000000     4.422000000     0.608000000
H     1.287000000     4.603000000     0.245000000
C     0.177000000     4.056000000     1.964000000
O     1.304000000     3.861000000     2.724000000
C     1.604000000     2.511000000     2.964000000
H     1.039000000     1.852000000     2.289000000
C     3.035000000     2.136000000     2.687000000
C     3.748000000     1.107000000     3.454000000
H     3.252000000     0.445000000     4.160000000
C     3.855000000     3.027000000     2.006000000
H     3.322000000     3.848000000     1.531000000
C     5.196000000     2.823000000     1.862000000
O     5.882000000     3.865000000     1.191000000
C     5.854000000     1.787000000     2.492000000
H     6.936000000     1.712000000     2.415000000
C     5.130000000     0.962000000     3.339000000
O     5.896000000     0.159000000     4.144000000
C     5.423000000    -1.056000000     4.646000000
C     4.948000000    -2.053000000     3.819000000
H     4.814000000    -2.006000000     2.742000000
C     5.437000000    -1.158000000     6.023000000
H     5.896000000    -0.429000000     6.686000000
C     5.013000000    -2.449000000     6.559000000
H     5.131000000    -2.696000000     7.611000000
C     4.477000000    -3.450000000     5.753000000
H     4.059000000    -4.362000000     6.171000000
C     4.434000000    -3.209000000     4.394000000
O     4.031000000    -4.293000000     3.615000000
C     2.782000000    -4.337000000     3.063000000
C     2.675000000    -5.248000000     2.092000000
H     3.513000000    -5.880000000     1.811000000
C     1.481000000    -5.346000000     1.386000000
O     1.333000000    -6.423000000     0.563000000
C     0.051000000    -6.653000000    -0.141000000
C    -0.071000000    -6.328000000    -1.506000000
H     0.734000000    -5.690000000    -1.863000000
C    -1.005000000    -7.272000000     0.578000000
H    -0.948000000    -7.711000000     1.571000000
C    -2.233000000    -7.398000000    -0.083000000
H    -3.062000000    -7.807000000     0.488000000
C    -2.375000000    -7.075000000    -1.452000000
H    -3.259000000    -7.256000000    -2.058000000
C    -1.314000000    -6.521000000    -2.171000000
O    -1.365000000    -6.034000000    -3.521000000
C    -1.838000000    -4.811000000    -3.969000000
C    -1.413000000    -4.213000000    -5.132000000
H    -0.756000000    -4.728000000    -5.828000000
C    -1.783000000    -2.922000000    -5.418000000
O    -1.390000000    -2.310000000    -6.604000000
C    -1.265000000    -0.882000000    -6.839000000
C    -0.046000000    -0.274000000    -6.655000000
H     0.802000000    -0.800000000    -6.225000000
C    -2.342000000    -0.169000000    -7.320000000
H    -3.260000000    -0.746000000    -7.386000000
C    -2.167000000     1.091000000    -7.818000000
H    -2.956000000     1.539000000    -8.416000000
C    -0.981000000     1.700000000    -7.506000000
H    -0.763000000     2.708000000    -7.848000000
C     0.056000000     1.113000000    -6.857000000
O     1.149000000     1.784000000    -6.559000000
C     1.290000000     2.396000000    -5.322000000
C     2.562000000     2.752000000    -4.920000000
H     3.288000000     2.507000000    -5.691000000
C     2.817000000     3.291000000    -3.681000000
O     4.143000000     3.540000000    -3.378000000
C     4.489000000     4.379000000    -2.242000000
C     4.346000000     5.713000000    -2.303000000
H     3.880000000     6.205000000    -3.153000000
C     4.485000000     6.442000000    -1.081000000
H     4.315000000     7.513000000    -1.014000000
C     5.050000000     5.786000000     0.020000000
H     5.016000000     6.270000000     0.993000000
C     5.375000000     4.437000000     0.042000000
C     5.054000000     3.734000000    -1.106000000
H     5.180000000     2.656000000    -1.042000000
C     0.490000000    -1.246000000    -1.716000000
H     0.132000000    -2.078000000    -2.317000000
C    -0.040000000    -0.900000000    -0.475000000
H    -0.902000000    -1.436000000    -0.084000000
C     0.223000000     0.269000000     0.159000000
H    -0.254000000     0.444000000     1.103000000
C     1.226000000     1.131000000    -0.313000000
H     1.392000000     2.051000000     0.242000000
C     1.865000000     0.699000000    -1.509000000
H     2.702000000     1.317000000    -1.825000000
C     1.460000000    -0.377000000    -2.231000000
C     2.374000000    -0.841000000    -3.377000000
O     3.444000000    -0.308000000    -3.624000000
O     2.099000000    -1.837000000    -3.953000000
O     5.426000000    -0.176000000    -0.417000000
H     5.411000000    -0.790000000    -1.152000000
H     4.573000000    -0.286000000     0.004000000
O     8.440000000    -2.544000000    -2.965000000
H     8.631000000    -3.459000000    -3.169000000
H     7.487000000    -2.478000000    -3.033000000
O     2.723000000    -5.458000000    -3.529000000
H     3.347000000    -6.177000000    -3.423000000
H     2.027000000    -5.824000000    -4.076000000
O     2.002000000    -3.574000000    -5.952000000
H     1.919000000    -3.022000000    -5.174000000
H     2.043000000    -4.466000000    -5.608000000
O     3.300000000    -3.200000000    -1.429000000
H     2.702000000    -3.193000000    -2.176000000
H     3.383000000    -4.126000000    -1.198000000
O     6.576000000    -2.091000000    -8.185000000
H     6.576000000    -1.299000000    -8.723000000
H     6.513000000    -1.769000000    -7.286000000
O     6.652000000    -2.448000000     0.812000000
H     5.998000000    -1.812000000     0.523000000
H     7.492000000    -2.050000000     0.579000000
O     4.781000000    -4.674000000    -7.080000000
H     4.099000000    -4.054000000    -6.819000000
H     5.536000000    -4.440000000    -6.540000000
O     7.101000000    -0.963000000    -5.860000000
H     7.865000000    -0.866000000    -5.292000000
H     6.651000000    -0.120000000    -5.802000000
O     3.838000000    -1.546000000    -6.143000000
H     3.165000000    -2.130000000    -6.493000000
H     3.586000000    -1.412000000    -5.229000000
O     7.820000000     1.155000000    -0.230000000
H     7.491000000     1.969000000    -0.611000000
H     7.053000000     0.757000000     0.182000000
O     5.423000000    -2.090000000    -2.818000000
H     4.889000000    -2.299000000    -2.052000000
H     4.966000000    -1.359000000    -3.236000000
O     1.306000000    -4.878000000    -8.386000000
H     0.766000000    -4.277000000    -8.901000000
H     1.566000000    -4.369000000    -7.618000000
O     7.326000000     2.796000000    -3.942000000
H     6.696000000     2.113000000    -3.712000000
H     7.694000000     2.511000000    -4.778000000
O     1.105000000    -1.157000000    -9.694000000
H     1.924000000    -1.573000000    -9.423000000
H     0.445000000    -1.843000000    -9.596000000
O     6.294000000    -3.386000000    -5.020000000
H     5.853000000    -3.218000000    -4.187000000
H     6.352000000    -2.527000000    -5.437000000
O     3.219000000    -1.301000000     0.624000000
H     3.140000000    -2.153000000     0.193000000
H     2.407000000    -0.845000000     0.404000000
O     4.537000000     0.765000000    -7.271000000
H     5.084000000     0.279000000    -7.888000000
H     3.965000000     0.102000000    -6.884000000
O     5.647000000     0.848000000    -4.296000000
H     4.982000000     0.339000000    -3.833000000
H     5.154000000     1.533000000    -4.747000000
