215
-1451.04760
C     1.367000000    -4.325000000     3.030000000
H     0.589000000    -4.846000000     2.478000000
C     1.077000000    -3.217000000     3.795000000
C     2.096000000    -2.556000000     4.499000000
H     1.876000000    -1.688000000     5.114000000
C    -0.325000000    -2.564000000     3.682000000
O    -1.432000000    -3.439000000     3.684000000
H    -0.365000000    -2.073000000     2.698000000
O    -0.497000000    -1.593000000     4.685000000
C    -1.178000000    -0.381000000     4.537000000
C    -0.339000000     0.675000000     4.469000000
H     0.683000000     0.538000000     4.813000000
C    -0.741000000     1.985000000     4.116000000
O     0.170000000     2.955000000     4.004000000
C    -2.077000000     2.163000000     3.811000000
C    -2.703000000     3.513000000     3.564000000
H    -3.714000000     3.422000000     3.966000000
C    -2.680000000     3.785000000     2.033000000
C    -3.821000000     3.434000000     1.231000000
H    -4.766000000     3.104000000     1.652000000
H    -2.218000000     4.283000000     4.168000000
C    -2.944000000     1.041000000     3.947000000
H    -3.988000000     1.187000000     3.682000000
C    -2.522000000    -0.230000000     4.316000000
C    -3.465000000    -1.452000000     4.333000000
H    -4.521000000    -1.226000000     4.496000000
H    -3.066000000    -2.057000000     5.149000000
C    -3.366000000    -2.165000000     2.992000000
C    -4.235000000    -1.850000000     1.944000000
H    -4.998000000    -1.095000000     2.111000000
C    -2.407000000    -3.154000000     2.739000000
C    -2.155000000    -3.618000000     1.476000000
H    -1.260000000    -4.208000000     1.292000000
C    -3.045000000    -3.319000000     0.421000000
O    -2.738000000    -3.831000000    -0.841000000
C    -2.118000000    -2.849000000    -1.692000000
C    -0.944000000    -3.530000000    -2.483000000
C    -0.338000000    -2.879000000    -3.569000000
H    -0.760000000    -1.939000000    -3.917000000
C    -0.396000000    -4.753000000    -2.066000000
H    -0.905000000    -5.251000000    -1.245000000
O    -3.041000000    -2.228000000    -2.661000000
H    -1.644000000    -2.018000000    -1.148000000
C    -4.062000000    -2.421000000     0.662000000
C    -5.015000000    -2.095000000    -0.452000000
H    -5.982000000    -1.801000000    -0.036000000
H    -5.172000000    -3.019000000    -1.012000000
C    -4.607000000    -0.903000000    -1.238000000
C    -5.006000000     0.421000000    -0.865000000
H    -5.637000000     0.550000000     0.010000000
C    -3.601000000    -1.007000000    -2.254000000
C    -3.273000000     0.054000000    -3.029000000
H    -2.482000000    -0.024000000    -3.770000000
C    -3.848000000     1.307000000    -2.765000000
O    -3.271000000     2.352000000    -3.472000000
C    -2.121000000     2.948000000    -2.832000000
C    -1.035000000     3.160000000    -3.904000000
C    -0.997000000     2.335000000    -5.059000000
H    -1.724000000     1.577000000    -5.339000000
C     0.035000000     4.012000000    -3.614000000
H     0.094000000     4.527000000    -2.659000000
O    -2.381000000     4.123000000    -2.057000000
H    -1.710000000     2.165000000    -2.177000000
C    -4.542000000     1.515000000    -1.556000000
C    -4.860000000     2.989000000    -1.075000000
H    -5.848000000     2.914000000    -0.616000000
H    -4.945000000     3.612000000    -1.968000000
C    -3.752000000     3.497000000    -0.156000000
C    -2.567000000     4.049000000    -0.709000000
C    -1.435000000     4.282000000     0.047000000
H    -0.534000000     4.664000000    -0.427000000
C    -1.487000000     4.195000000     1.418000000
O    -0.374000000     4.457000000     2.245000000
C     0.457000000     3.294000000     2.591000000
H     0.201000000     2.445000000     1.941000000
C     1.951000000     3.448000000     2.366000000
C     2.781000000     2.395000000     2.776000000
H     2.503000000     1.642000000     3.509000000
C     2.445000000     4.348000000     1.477000000
H     1.899000000     5.193000000     1.066000000
C     3.727000000     4.292000000     0.961000000
O     4.154000000     5.232000000     0.006000000
C     4.579000000     3.337000000     1.423000000
H     5.582000000     3.224000000     1.021000000
C     4.088000000     2.351000000     2.311000000
O     4.949000000     1.328000000     2.627000000
C     4.978000000     0.786000000     3.868000000
C     4.516000000    -0.494000000     4.000000000
H     4.042000000    -1.018000000     3.174000000
C     5.616000000     1.391000000     4.939000000
H     6.107000000     2.343000000     4.751000000
C     5.620000000     0.825000000     6.213000000
H     6.109000000     1.354000000     7.027000000
C     5.182000000    -0.443000000     6.340000000
H     5.161000000    -0.880000000     7.335000000
C     4.647000000    -1.141000000     5.220000000
O     4.342000000    -2.486000000     5.306000000
C     3.414000000    -3.101000000     4.557000000
C     3.663000000    -4.125000000     3.665000000
H     4.697000000    -4.458000000     3.633000000
C     2.682000000    -4.762000000     2.904000000
O     3.163000000    -5.600000000     1.896000000
C     2.342000000    -6.277000000     0.976000000
C     2.228000000    -6.094000000    -0.408000000
H     2.829000000    -5.370000000    -0.952000000
C     1.639000000    -7.341000000     1.565000000
H     1.760000000    -7.673000000     2.593000000
C     0.727000000    -8.041000000     0.830000000
H     0.175000000    -8.817000000     1.354000000
C     0.565000000    -7.736000000    -0.518000000
H    -0.090000000    -8.293000000    -1.182000000
C     1.237000000    -6.734000000    -1.102000000
O     1.067000000    -6.555000000    -2.414000000
C     0.710000000    -5.299000000    -2.707000000
C     1.350000000    -4.587000000    -3.717000000
H     2.254000000    -4.961000000    -4.191000000
C     0.759000000    -3.357000000    -4.186000000
O     1.402000000    -2.687000000    -5.256000000
C     0.682000000    -1.901000000    -6.167000000
C     0.701000000    -0.496000000    -6.075000000
H     1.306000000    -0.078000000    -5.274000000
C    -0.018000000    -2.574000000    -7.143000000
H    -0.036000000    -3.660000000    -7.102000000
C    -0.679000000    -1.729000000    -8.088000000
H    -1.190000000    -2.156000000    -8.947000000
C    -0.701000000    -0.345000000    -8.029000000
H    -1.022000000     0.188000000    -8.920000000
C     0.041000000     0.288000000    -6.984000000
O     0.139000000     1.627000000    -7.040000000
C     0.104000000     2.456000000    -5.974000000
C     1.145000000     3.300000000    -5.648000000
H     2.003000000     3.330000000    -6.315000000
C     1.120000000     4.086000000    -4.487000000
O     2.178000000     4.909000000    -4.250000000
C     2.501000000     5.626000000    -3.175000000
C     2.024000000     6.939000000    -3.039000000
H     1.319000000     7.258000000    -3.803000000
C     2.293000000     7.690000000    -1.888000000
H     1.839000000     8.673000000    -1.788000000
C     3.006000000     7.049000000    -0.880000000
H     3.044000000     7.595000000     0.059000000
C     3.385000000     5.738000000    -0.978000000
C     3.178000000     5.047000000    -2.150000000
H     3.494000000     4.007000000    -2.174000000
C     1.590000000    -1.655000000    -1.162000000
H     2.240000000    -2.514000000    -1.310000000
C     0.589000000    -1.744000000    -0.133000000
H     0.419000000    -2.707000000     0.342000000
C    -0.118000000    -0.583000000     0.234000000
H    -0.975000000    -0.644000000     0.924000000
C     0.144000000     0.615000000    -0.352000000
H    -0.482000000     1.442000000    -0.027000000
C     1.178000000     0.742000000    -1.262000000
H     1.422000000     1.710000000    -1.692000000
C     1.831000000    -0.371000000    -1.728000000
C     2.983000000    -0.307000000    -2.755000000
O     3.052000000     0.657000000    -3.504000000
O     3.620000000    -1.313000000    -3.066000000
O     8.215000000    -1.542000000    -4.315000000
H     7.610000000    -0.984000000    -3.827000000
H     9.084000000    -1.215000000    -4.082000000
O     6.670000000    -3.622000000    -5.127000000
H     7.188000000    -2.879000000    -4.817000000
H     5.791000000    -3.265000000    -5.256000000
O     6.192000000     0.257000000    -3.121000000
H     6.272000000    -0.156000000    -2.261000000
H     5.496000000    -0.234000000    -3.558000000
O     4.156000000     2.033000000    -8.149000000
H     4.406000000     1.535000000    -7.371000000
H     4.011000000     2.923000000    -7.828000000
O     4.296000000    -2.744000000    -5.704000000
H     3.732000000    -3.175000000    -6.347000000
H     3.721000000    -2.575000000    -4.958000000
O     4.054000000     0.240000000    -6.047000000
H     3.637000000     0.497000000    -5.225000000
H     3.908000000    -0.704000000    -6.106000000
O     4.938000000    -5.603000000    -3.954000000
H     5.736000000    -5.474000000    -4.467000000
H     4.764000000    -4.746000000    -3.564000000
O     4.592000000    -3.435000000    -2.369000000
H     5.038000000    -3.058000000    -1.611000000
H     4.029000000    -2.731000000    -2.691000000
O     5.688000000    -0.447000000    -8.986000000
H     5.227000000     0.387000000    -9.072000000
H     6.223000000    -0.345000000    -8.198000000
O     6.778000000     0.808000000    -6.741000000
H     5.913000000     0.482000000    -6.494000000
H     6.967000000     1.493000000    -6.099000000
O     5.956000000    -2.360000000     1.494000000
H     6.295000000    -3.256000000     1.506000000
H     6.683000000    -1.826000000     1.816000000
O     7.309000000     3.214000000    -5.435000000
H     7.345000000     4.025000000    -5.942000000
H     6.445000000     3.226000000    -5.024000000
O     2.865000000    -2.786000000    -8.091000000
H     2.544000000    -2.617000000    -8.977000000
H     2.291000000    -2.268000000    -7.527000000
O     7.079000000     4.330000000    -1.463000000
H     6.798000000     5.191000000    -1.773000000
H     6.266000000     3.834000000    -1.364000000
O     6.937000000    -5.195000000    -1.979000000
H     7.551000000    -5.447000000    -2.668000000
H     6.253000000    -4.704000000    -2.436000000
O     7.399000000     1.213000000     0.951000000
H     6.485000000     0.962000000     1.082000000
H     7.525000000     1.172000000     0.003000000
O     5.802000000    -0.864000000    -0.851000000
H     4.874000000    -0.633000000    -0.883000000
H     5.892000000    -1.386000000    -0.054000000
O     5.274000000     5.076000000    -5.204000000
H     5.053000000     4.338000000    -4.635000000
H     4.751000000     4.934000000    -5.994000000
O     5.097000000     2.744000000    -3.940000000
H     4.153000000     2.604000000    -4.011000000
H     5.468000000     1.862000000    -3.898000000
