215
-1449.43415
C     2.145000000    -4.067000000     1.992000000
H     1.318000000    -4.466000000     1.410000000
C     1.968000000    -3.211000000     3.112000000
C     3.050000000    -2.710000000     3.827000000
H     2.943000000    -2.012000000     4.653000000
C     0.599000000    -2.828000000     3.430000000
O    -0.299000000    -3.992000000     3.370000000
H     0.346000000    -2.186000000     2.573000000
O     0.609000000    -2.046000000     4.632000000
C    -0.126000000    -0.883000000     4.678000000
C     0.585000000     0.366000000     4.515000000
H     1.669000000     0.422000000     4.446000000
C    -0.164000000     1.544000000     4.210000000
O     0.570000000     2.691000000     3.936000000
C    -1.488000000     1.562000000     4.371000000
C    -2.367000000     2.869000000     4.275000000
H    -3.345000000     2.760000000     4.747000000
C    -2.527000000     3.277000000     2.847000000
C    -3.661000000     2.865000000     2.128000000
H    -4.326000000     2.174000000     2.639000000
H    -1.919000000     3.688000000     4.842000000
C    -2.222000000     0.363000000     4.546000000
H    -3.303000000     0.472000000     4.501000000
C    -1.523000000    -0.870000000     4.624000000
C    -2.306000000    -2.193000000     4.739000000
H    -3.324000000    -2.004000000     5.087000000
H    -1.806000000    -2.871000000     5.435000000
C    -2.462000000    -2.799000000     3.378000000
C    -3.701000000    -2.499000000     2.705000000
H    -4.413000000    -1.827000000     3.177000000
C    -1.516000000    -3.706000000     2.808000000
C    -1.676000000    -4.043000000     1.473000000
H    -0.896000000    -4.546000000     0.908000000
C    -2.871000000    -3.732000000     0.806000000
O    -3.031000000    -4.080000000    -0.492000000
C    -2.679000000    -3.206000000    -1.658000000
C    -1.709000000    -3.885000000    -2.625000000
C    -1.495000000    -3.375000000    -3.899000000
H    -1.896000000    -2.408000000    -4.190000000
C    -1.012000000    -4.984000000    -2.191000000
H    -1.122000000    -5.407000000    -1.196000000
O    -3.969000000    -2.671000000    -2.211000000
H    -2.123000000    -2.316000000    -1.329000000
C    -3.871000000    -2.978000000     1.400000000
C    -5.082000000    -2.483000000     0.521000000
H    -5.933000000    -2.268000000     1.171000000
H    -5.273000000    -3.308000000    -0.168000000
C    -4.765000000    -1.276000000    -0.382000000
C    -4.996000000    -0.026000000     0.189000000
H    -5.563000000     0.046000000     1.114000000
C    -4.234000000    -1.412000000    -1.658000000
C    -3.829000000    -0.289000000    -2.359000000
H    -3.432000000    -0.392000000    -3.366000000
C    -4.065000000     0.983000000    -1.876000000
O    -3.589000000     2.043000000    -2.600000000
C    -2.469000000     2.723000000    -2.037000000
C    -1.316000000     3.055000000    -2.976000000
C    -0.764000000     1.940000000    -3.631000000
H    -1.259000000     0.987000000    -3.460000000
C    -0.804000000     4.366000000    -3.070000000
H    -1.107000000     5.180000000    -2.417000000
O    -2.792000000     3.939000000    -1.273000000
H    -2.053000000     1.979000000    -1.342000000
C    -4.574000000     1.120000000    -0.553000000
C    -4.968000000     2.450000000    -0.034000000
H    -5.833000000     2.361000000     0.627000000
H    -5.344000000     3.099000000    -0.828000000
C    -3.817000000     3.137000000     0.756000000
C    -2.802000000     3.827000000     0.089000000
C    -1.717000000     4.352000000     0.828000000
H    -0.920000000     4.893000000     0.324000000
C    -1.579000000     4.077000000     2.180000000
O    -0.381000000     4.385000000     2.795000000
C     0.438000000     3.225000000     2.643000000
H    -0.039000000     2.465000000     2.006000000
C     1.735000000     3.593000000     1.907000000
C     2.662000000     2.603000000     1.844000000
H     2.426000000     1.626000000     2.258000000
C     2.036000000     4.827000000     1.322000000
H     1.364000000     5.678000000     1.405000000
C     3.241000000     5.048000000     0.642000000
O     3.499000000     6.242000000     0.067000000
C     4.169000000     3.994000000     0.517000000
H     5.001000000     4.101000000    -0.175000000
C     3.884000000     2.792000000     1.167000000
O     4.694000000     1.662000000     0.897000000
C     5.335000000     0.958000000     1.946000000
C     5.081000000    -0.359000000     2.200000000
H     4.475000000    -0.949000000     1.517000000
C     6.044000000     1.728000000     2.908000000
H     6.023000000     2.813000000     2.838000000
C     6.532000000     1.172000000     4.049000000
H     6.949000000     1.899000000     4.741000000
C     6.384000000    -0.215000000     4.254000000
H     6.652000000    -0.740000000     5.167000000
C     5.630000000    -0.976000000     3.378000000
O     5.440000000    -2.278000000     3.679000000
C     4.342000000    -2.937000000     3.271000000
C     4.504000000    -3.813000000     2.210000000
H     5.457000000    -3.902000000     1.695000000
C     3.426000000    -4.370000000     1.576000000
O     3.595000000    -4.891000000     0.305000000
C     2.785000000    -5.916000000    -0.099000000
C     2.153000000    -5.787000000    -1.354000000
H     2.189000000    -4.893000000    -1.971000000
C     2.522000000    -6.988000000     0.765000000
H     2.993000000    -7.025000000     1.743000000
C     1.626000000    -7.950000000     0.450000000
H     1.519000000    -8.755000000     1.172000000
C     0.980000000    -7.836000000    -0.761000000
H     0.216000000    -8.572000000    -1.002000000
C     1.234000000    -6.840000000    -1.680000000
O     0.447000000    -6.733000000    -2.788000000
C    -0.230000000    -5.659000000    -3.158000000
C    -0.077000000    -5.168000000    -4.432000000
H     0.661000000    -5.626000000    -5.086000000
C    -0.676000000    -4.006000000    -4.826000000
O    -0.273000000    -3.433000000    -6.009000000
C    -0.490000000    -2.073000000    -6.218000000
C     0.360000000    -1.221000000    -5.665000000
H     1.220000000    -1.518000000    -5.069000000
C    -1.579000000    -1.587000000    -6.862000000
H    -2.278000000    -2.214000000    -7.410000000
C    -1.686000000    -0.253000000    -7.145000000
H    -2.575000000    -0.007000000    -7.720000000
C    -0.771000000     0.682000000    -6.636000000
H    -0.798000000     1.760000000    -6.769000000
C     0.157000000     0.174000000    -5.753000000
O     0.976000000     1.036000000    -4.967000000
C     0.388000000     2.128000000    -4.463000000
C     0.932000000     3.476000000    -4.504000000
H     1.851000000     3.664000000    -5.054000000
C     0.295000000     4.562000000    -3.870000000
O     0.843000000     5.765000000    -3.950000000
C     1.246000000     6.519000000    -2.895000000
C     1.129000000     7.942000000    -3.070000000
H     0.525000000     8.365000000    -3.868000000
C     1.762000000     8.716000000    -2.097000000
H     1.650000000     9.795000000    -2.156000000
C     2.526000000     8.146000000    -1.060000000
H     2.975000000     8.848000000    -0.362000000
C     2.696000000     6.767000000    -0.943000000
C     2.023000000     6.009000000    -1.872000000
H     2.184000000     4.936000000    -1.799000000
C     1.611000000    -1.245000000    -1.187000000
H     1.984000000    -2.256000000    -1.326000000
C     0.576000000    -0.987000000    -0.257000000
H     0.084000000    -1.760000000     0.328000000
C     0.206000000     0.339000000     0.051000000
H    -0.472000000     0.611000000     0.852000000
C     0.791000000     1.317000000    -0.651000000
H     0.533000000     2.363000000    -0.505000000
C     1.873000000     1.142000000    -1.481000000
H     2.273000000     1.968000000    -2.063000000
C     2.306000000    -0.159000000    -1.809000000
C     3.301000000    -0.490000000    -2.821000000
O     3.951000000     0.436000000    -3.356000000
O     3.330000000    -1.609000000    -3.270000000
O     4.361000000     3.146000000    -3.228000000
H     5.216000000     3.249000000    -2.810000000
H     4.188000000     2.205000000    -3.190000000
O     7.631000000    -3.643000000    -2.088000000
H     7.867000000    -2.759000000    -1.809000000
H     8.423000000    -4.161000000    -1.938000000
O     6.875000000     1.502000000    -4.834000000
H     6.039000000     1.080000000    -5.029000000
H     6.689000000     2.071000000    -4.088000000
O     3.375000000    -3.792000000    -4.780000000
H     3.803000000    -4.367000000    -4.146000000
H     3.133000000    -3.016000000    -4.276000000
O     3.980000000     1.108000000    -5.995000000
H     3.911000000     0.639000000    -5.163000000
H     3.252000000     1.729000000    -5.981000000
O     5.310000000    -6.741000000    -3.021000000
H     6.027000000    -6.612000000    -3.641000000
H     5.253000000    -5.912000000    -2.545000000
O     1.415000000    -0.677000000    -9.092000000
H     2.110000000    -1.267000000    -8.800000000
H     0.653000000    -0.928000000    -8.570000000
O     6.400000000    -0.785000000    -2.432000000
H     5.463000000    -0.646000000    -2.571000000
H     6.825000000    -0.155000000    -3.015000000
O     5.901000000    -2.261000000    -4.705000000
H     4.993000000    -2.207000000    -4.407000000
H     6.421000000    -2.083000000    -3.922000000
O     6.574000000    -1.208000000    -6.945000000
H     7.508000000    -1.126000000    -6.752000000
H     6.215000000    -1.680000000    -6.194000000
O     7.821000000    -4.300000000    -5.146000000
H     7.064000000    -3.785000000    -4.868000000
H     8.022000000    -3.975000000    -6.024000000
O     7.806000000     0.280000000    -0.375000000
H     7.187000000    -0.165000000    -0.954000000
H     7.360000000     1.089000000    -0.124000000
O     6.916000000     3.184000000    -2.291000000
H     7.012000000     3.264000000    -1.341000000
H     7.477000000     3.872000000    -2.647000000
O     3.775000000    -1.909000000    -7.478000000
H     4.186000000    -1.057000000    -7.332000000
H     4.139000000    -2.471000000    -6.794000000
O     2.133000000    -4.643000000    -7.207000000
H     2.543000000    -4.484000000    -6.357000000
H     2.779000000    -4.339000000    -7.845000000
O     5.248000000     2.537000000    -8.026000000
H     5.405000000     1.985000000    -7.261000000
H     4.542000000     2.097000000    -8.498000000
O     3.468000000     4.394000000    -6.845000000
H     3.971000000     4.758000000    -6.116000000
H     4.080000000     3.807000000    -7.288000000
O     4.831000000    -3.982000000    -2.314000000
H     4.261000000    -3.216000000    -2.252000000
H     5.718000000    -3.626000000    -2.261000000
O     4.590000000     5.283000000    -4.573000000
H     4.385000000     4.562000000    -3.979000000
H     4.610000000     6.058000000    -4.011000000
