215
-1454.55753
C     0.049000000    -4.882000000     2.912000000
H    -0.775000000    -5.267000000     2.317000000
C    -0.144000000    -3.741000000     3.656000000
C     0.799000000    -3.274000000     4.552000000
H     0.699000000    -2.322000000     5.067000000
C    -1.342000000    -2.945000000     3.366000000
O    -2.401000000    -3.652000000     2.796000000
H    -0.953000000    -2.298000000     2.566000000
O    -1.807000000    -2.045000000     4.445000000
C    -2.216000000    -0.758000000     4.190000000
C    -1.290000000     0.289000000     4.380000000
H    -0.291000000     0.054000000     4.740000000
C    -1.565000000     1.552000000     3.975000000
O    -0.528000000     2.485000000     4.013000000
C    -2.787000000     1.855000000     3.422000000
C    -3.095000000     3.369000000     3.005000000
H    -4.169000000     3.524000000     3.122000000
C    -2.613000000     3.742000000     1.632000000
C    -3.482000000     3.618000000     0.603000000
H    -4.499000000     3.302000000     0.823000000
H    -2.680000000     4.157000000     3.637000000
C    -3.778000000     0.830000000     3.269000000
H    -4.720000000     1.093000000     2.794000000
C    -3.462000000    -0.440000000     3.670000000
C    -4.347000000    -1.574000000     3.250000000
H    -5.361000000    -1.169000000     3.222000000
H    -4.477000000    -2.385000000     3.969000000
C    -4.073000000    -2.101000000     1.889000000
C    -4.699000000    -1.530000000     0.694000000
H    -5.394000000    -0.694000000     0.728000000
C    -3.125000000    -3.098000000     1.708000000
C    -2.806000000    -3.616000000     0.391000000
H    -2.239000000    -4.537000000     0.287000000
C    -3.386000000    -2.979000000    -0.708000000
O    -2.968000000    -3.434000000    -1.903000000
C    -1.978000000    -2.609000000    -2.650000000
C    -0.907000000    -3.356000000    -3.324000000
C    -0.364000000    -2.918000000    -4.535000000
H    -0.816000000    -2.061000000    -5.029000000
C    -0.219000000    -4.346000000    -2.605000000
H    -0.612000000    -4.669000000    -1.644000000
O    -2.783000000    -1.741000000    -3.495000000
H    -1.481000000    -1.947000000    -1.926000000
C    -4.378000000    -2.027000000    -0.581000000
C    -5.058000000    -1.322000000    -1.804000000
H    -6.055000000    -0.969000000    -1.532000000
H    -5.150000000    -2.034000000    -2.627000000
C    -4.219000000    -0.156000000    -2.263000000
C    -4.475000000     1.137000000    -1.861000000
H    -5.355000000     1.408000000    -1.283000000
C    -3.107000000    -0.461000000    -3.082000000
C    -2.335000000     0.596000000    -3.597000000
H    -1.439000000     0.367000000    -4.167000000
C    -2.571000000     1.888000000    -3.254000000
O    -1.648000000     2.759000000    -3.720000000
C    -0.712000000     3.300000000    -2.763000000
C     0.659000000     3.479000000    -3.321000000
C     1.167000000     2.522000000    -4.177000000
H     0.607000000     1.617000000    -4.398000000
C     1.460000000     4.594000000    -2.969000000
H     0.993000000     5.328000000    -2.317000000
O    -1.238000000     4.531000000    -2.138000000
H    -0.665000000     2.606000000    -1.911000000
C    -3.637000000     2.164000000    -2.404000000
C    -3.894000000     3.618000000    -1.965000000
H    -4.967000000     3.804000000    -1.886000000
H    -3.596000000     4.290000000    -2.772000000
C    -3.023000000     3.849000000    -0.704000000
C    -1.781000000     4.408000000    -0.897000000
C    -0.890000000     4.563000000     0.150000000
H     0.140000000     4.845000000    -0.051000000
C    -1.312000000     4.200000000     1.443000000
O    -0.334000000     4.154000000     2.342000000
C     0.119000000     2.893000000     2.775000000
H    -0.228000000     2.144000000     2.048000000
C     1.621000000     3.006000000     2.837000000
C     2.249000000     1.880000000     3.380000000
H     1.666000000     1.008000000     3.667000000
C     2.410000000     4.025000000     2.281000000
H     1.919000000     4.897000000     1.857000000
C     3.787000000     3.836000000     2.149000000
O     4.553000000     4.772000000     1.436000000
C     4.419000000     2.826000000     2.848000000
H     5.499000000     2.715000000     2.905000000
C     3.660000000     1.798000000     3.333000000
O     4.278000000     0.699000000     3.689000000
C     3.928000000    -0.032000000     4.813000000
C     3.685000000    -1.387000000     4.709000000
H     3.837000000    -1.880000000     3.752000000
C     3.765000000     0.558000000     6.093000000
H     3.999000000     1.592000000     6.333000000
C     3.541000000    -0.233000000     7.179000000
H     3.500000000     0.208000000     8.172000000
C     3.166000000    -1.590000000     7.002000000
H     2.900000000    -2.299000000     7.781000000
C     3.228000000    -2.160000000     5.748000000
O     2.940000000    -3.499000000     5.611000000
C     2.052000000    -3.978000000     4.638000000
C     2.260000000    -5.117000000     3.815000000
H     3.163000000    -5.705000000     3.957000000
C     1.222000000    -5.591000000     3.024000000
O     1.432000000    -6.789000000     2.358000000
C     0.933000000    -7.013000000     1.085000000
C     1.484000000    -6.367000000    -0.034000000
H     2.282000000    -5.628000000    -0.028000000
C    -0.138000000    -7.929000000     0.875000000
H    -0.406000000    -8.538000000     1.735000000
C    -0.620000000    -8.254000000    -0.393000000
H    -1.395000000    -9.005000000    -0.520000000
C    -0.022000000    -7.611000000    -1.487000000
H    -0.335000000    -7.939000000    -2.475000000
C     0.967000000    -6.652000000    -1.318000000
O     1.457000000    -6.124000000    -2.436000000
C     0.945000000    -4.994000000    -3.077000000
C     1.529000000    -4.495000000    -4.264000000
H     2.339000000    -5.049000000    -4.732000000
C     0.922000000    -3.443000000    -4.917000000
O     1.520000000    -3.071000000    -6.037000000
C     1.596000000    -1.732000000    -6.341000000
C     2.351000000    -0.731000000    -5.685000000
H     3.044000000    -1.081000000    -4.924000000
C     0.750000000    -1.344000000    -7.392000000
H     0.219000000    -2.156000000    -7.884000000
C     0.600000000    -0.046000000    -7.757000000
H    -0.016000000     0.206000000    -8.616000000
C     1.273000000     0.931000000    -7.043000000
H     1.112000000     1.981000000    -7.269000000
C     2.199000000     0.608000000    -6.062000000
O     2.953000000     1.595000000    -5.467000000
C     2.491000000     2.628000000    -4.637000000
C     3.278000000     3.752000000    -4.384000000
H     4.266000000     3.856000000    -4.826000000
C     2.764000000     4.779000000    -3.526000000
O     3.573000000     5.810000000    -3.177000000
C     3.753000000     6.233000000    -1.871000000
C     3.446000000     7.465000000    -1.425000000
H     3.027000000     8.206000000    -2.102000000
C     3.540000000     7.885000000    -0.119000000
H     3.322000000     8.858000000     0.314000000
C     3.852000000     6.938000000     0.847000000
H     3.954000000     7.290000000     1.871000000
C     4.150000000     5.640000000     0.453000000
C     4.048000000     5.245000000    -0.876000000
H     4.264000000     4.200000000    -1.080000000
C     1.737000000    -1.818000000    -0.435000000
H     2.194000000    -2.801000000    -0.521000000
C     0.636000000    -1.655000000     0.400000000
H     0.363000000    -2.478000000     1.056000000
C     0.066000000    -0.432000000     0.634000000
H    -0.618000000    -0.324000000     1.470000000
C     0.568000000     0.657000000    -0.088000000
H     0.248000000     1.681000000     0.087000000
C     1.715000000     0.512000000    -0.917000000
H     2.106000000     1.467000000    -1.256000000
C     2.314000000    -0.749000000    -1.160000000
C     3.490000000    -0.940000000    -2.044000000
O     4.156000000     0.005000000    -2.364000000
O     3.825000000    -2.065000000    -2.377000000
O     6.560000000    -6.004000000     0.168000000
H     6.053000000    -5.241000000    -0.110000000
H     6.469000000    -6.017000000     1.121000000
O     6.730000000    -0.583000000    -2.105000000
H     5.808000000    -0.328000000    -2.063000000
H     6.841000000    -1.199000000    -1.381000000
O     7.981000000    -2.147000000    -4.348000000
H     7.946000000    -1.593000000    -3.569000000
H     7.097000000    -2.507000000    -4.427000000
O     5.103000000     1.652000000    -0.422000000
H     5.198000000     1.048000000     0.315000000
H     4.594000000     1.162000000    -1.069000000
O     4.993000000    -5.649000000    -3.116000000
H     4.852000000    -5.439000000    -2.193000000
H     4.941000000    -4.805000000    -3.565000000
O     8.330000000    -2.382000000    -0.223000000
H     8.705000000    -2.326000000     0.656000000
H     8.773000000    -1.694000000    -0.718000000
O     5.584000000     0.796000000    -4.602000000
H     5.438000000     0.119000000    -3.942000000
H     4.719000000     1.178000000    -4.750000000
O     4.705000000    -4.003000000    -0.707000000
H     4.301000000    -3.371000000    -1.301000000
H     4.883000000    -3.503000000     0.090000000
O     6.326000000    -0.080000000     1.551000000
H     6.492000000    -1.014000000     1.679000000
H     5.551000000     0.101000000     2.083000000
O     5.008000000    -1.778000000    -6.853000000
H     5.113000000    -2.300000000    -7.648000000
H     4.771000000    -0.906000000    -7.168000000
O     5.502000000    -3.003000000    -4.369000000
H     5.011000000    -2.781000000    -3.577000000
H     5.004000000    -2.600000000    -5.080000000
O     5.844000000    -2.914000000     1.385000000
H     6.685000000    -2.834000000     0.937000000
H     5.961000000    -3.650000000     1.986000000
O     8.162000000     1.574000000    -3.143000000
H     7.598000000     1.094000000    -2.536000000
H     7.791000000     1.398000000    -4.007000000
O     6.859000000     3.756000000     0.064000000
H     6.311000000     2.973000000     0.007000000
H     6.416000000     4.313000000     0.704000000
O     8.412000000     1.394000000     1.170000000
H     8.227000000     2.166000000     0.635000000
H     7.647000000     0.831000000     1.050000000
O     9.103000000    -4.794000000    -1.652000000
H     8.570000000    -4.025000000    -1.451000000
H     8.704000000    -5.502000000    -1.145000000
O     6.839000000    -3.792000000    -7.267000000
H     6.226000000    -3.244000000    -6.776000000
H     7.543000000    -3.980000000    -6.646000000
O     7.652000000     1.485000000    -6.188000000
H     8.068000000     0.691000000    -6.523000000
H     6.912000000     1.169000000    -5.670000000
O     6.905000000     4.608000000    -4.122000000
H     7.487000000     4.441000000    -4.864000000
H     7.040000000     3.861000000    -3.539000000
