215
-1465.34144
C    -0.454000000    -4.961000000     2.879000000
H    -1.372000000    -5.256000000     2.376000000
C    -0.457000000    -3.725000000     3.444000000
C     0.602000000    -3.244000000     4.271000000
H     0.645000000    -2.227000000     4.652000000
C    -1.583000000    -2.748000000     3.184000000
O    -2.766000000    -3.471000000     2.845000000
H    -1.357000000    -2.093000000     2.329000000
O    -1.782000000    -1.847000000     4.291000000
C    -2.171000000    -0.512000000     4.030000000
C    -1.213000000     0.461000000     4.191000000
H    -0.201000000     0.198000000     4.490000000
C    -1.512000000     1.788000000     3.896000000
O    -0.438000000     2.658000000     3.952000000
C    -2.807000000     2.182000000     3.430000000
C    -3.120000000     3.612000000     2.882000000
H    -4.188000000     3.750000000     2.701000000
C    -2.557000000     4.032000000     1.542000000
C    -3.360000000     4.039000000     0.416000000
H    -4.341000000     3.610000000     0.605000000
H    -2.891000000     4.307000000     3.692000000
C    -3.717000000     1.121000000     3.257000000
H    -4.702000000     1.378000000     2.876000000
C    -3.441000000    -0.197000000     3.497000000
C    -4.517000000    -1.218000000     3.234000000
H    -5.468000000    -0.686000000     3.300000000
H    -4.553000000    -2.065000000     3.923000000
C    -4.257000000    -1.793000000     1.852000000
C    -4.713000000    -1.135000000     0.671000000
H    -5.273000000    -0.223000000     0.860000000
C    -3.334000000    -2.890000000     1.729000000
C    -3.034000000    -3.357000000     0.482000000
H    -2.329000000    -4.184000000     0.447000000
C    -3.542000000    -2.721000000    -0.639000000
O    -3.034000000    -3.207000000    -1.890000000
C    -2.032000000    -2.489000000    -2.577000000
C    -0.850000000    -3.351000000    -2.998000000
C     0.079000000    -2.731000000    -3.818000000
H    -0.204000000    -1.752000000    -4.198000000
C    -0.514000000    -4.614000000    -2.531000000
H    -1.206000000    -5.125000000    -1.867000000
O    -2.608000000    -1.656000000    -3.607000000
H    -1.519000000    -1.862000000    -1.833000000
C    -4.375000000    -1.674000000    -0.610000000
C    -5.004000000    -1.045000000    -1.844000000
H    -5.936000000    -0.575000000    -1.522000000
H    -5.259000000    -1.770000000    -2.619000000
C    -4.038000000    -0.031000000    -2.421000000
C    -4.272000000     1.291000000    -2.053000000
H    -5.181000000     1.579000000    -1.532000000
C    -3.003000000    -0.382000000    -3.336000000
C    -2.149000000     0.646000000    -3.766000000
H    -1.386000000     0.374000000    -4.491000000
C    -2.318000000     1.921000000    -3.325000000
O    -1.428000000     2.868000000    -3.769000000
C    -0.486000000     3.347000000    -2.876000000
C     0.904000000     3.452000000    -3.521000000
C     1.306000000     2.672000000    -4.584000000
H     0.594000000     1.994000000    -5.045000000
C     1.833000000     4.280000000    -2.843000000
H     1.482000000     4.792000000    -1.951000000
O    -0.911000000     4.617000000    -2.353000000
H    -0.447000000     2.591000000    -2.078000000
C    -3.439000000     2.298000000    -2.573000000
C    -3.679000000     3.736000000    -2.124000000
H    -4.750000000     3.920000000    -2.013000000
H    -3.470000000     4.469000000    -2.907000000
C    -2.899000000     4.166000000    -0.903000000
C    -1.534000000     4.542000000    -1.041000000
C    -0.759000000     4.668000000     0.153000000
H     0.272000000     4.972000000    -0.011000000
C    -1.270000000     4.500000000     1.464000000
O    -0.413000000     4.413000000     2.514000000
C     0.230000000     3.112000000     2.788000000
H     0.072000000     2.466000000     1.911000000
C     1.806000000     3.148000000     2.984000000
C     2.470000000     2.036000000     3.536000000
H     1.976000000     1.150000000     3.928000000
C     2.514000000     4.218000000     2.397000000
H     2.033000000     4.997000000     1.811000000
C     3.908000000     4.207000000     2.476000000
O     4.686000000     5.162000000     1.917000000
C     4.558000000     3.127000000     3.151000000
H     5.642000000     3.192000000     3.196000000
C     3.849000000     2.039000000     3.642000000
O     4.567000000     0.891000000     4.023000000
C     4.104000000    -0.096000000     4.823000000
C     3.689000000    -1.375000000     4.342000000
H     3.929000000    -1.680000000     3.326000000
C     3.800000000     0.157000000     6.166000000
H     4.185000000     1.070000000     6.613000000
C     3.122000000    -0.812000000     6.974000000
H     2.961000000    -0.535000000     8.013000000
C     3.002000000    -2.095000000     6.523000000
H     2.636000000    -2.815000000     7.250000000
C     3.224000000    -2.418000000     5.168000000
O     2.958000000    -3.646000000     4.719000000
C     1.737000000    -4.097000000     4.238000000
C     1.761000000    -5.359000000     3.660000000
H     2.675000000    -5.940000000     3.751000000
C     0.640000000    -5.817000000     2.962000000
O     0.653000000    -7.072000000     2.431000000
C     0.232000000    -7.383000000     1.105000000
C     0.817000000    -6.794000000     0.000000000
H     1.463000000    -5.920000000    -0.001000000
C    -0.635000000    -8.514000000     1.004000000
H    -0.965000000    -9.060000000     1.884000000
C    -1.048000000    -8.989000000    -0.265000000
H    -1.654000000    -9.887000000    -0.349000000
C    -0.500000000    -8.336000000    -1.352000000
H    -0.806000000    -8.600000000    -2.361000000
C     0.357000000    -7.207000000    -1.279000000
O     1.017000000    -6.542000000    -2.403000000
C     0.684000000    -5.273000000    -2.870000000
C     1.611000000    -4.658000000    -3.715000000
H     2.514000000    -5.196000000    -3.994000000
C     1.291000000    -3.374000000    -4.215000000
O     2.269000000    -2.737000000    -5.042000000
C     2.016000000    -1.638000000    -5.767000000
C     2.764000000    -0.446000000    -5.500000000
H     3.542000000    -0.416000000    -4.741000000
C     1.081000000    -1.760000000    -6.737000000
H     0.596000000    -2.694000000    -7.009000000
C     0.774000000    -0.609000000    -7.530000000
H     0.025000000    -0.668000000    -8.316000000
C     1.457000000     0.600000000    -7.296000000
H     1.205000000     1.464000000    -7.905000000
C     2.482000000     0.667000000    -6.333000000
O     3.088000000     1.895000000    -6.121000000
C     2.662000000     2.708000000    -5.021000000
C     3.537000000     3.642000000    -4.455000000
H     4.504000000     3.774000000    -4.933000000
C     3.113000000     4.366000000    -3.367000000
O     4.068000000     5.228000000    -2.778000000
C     3.870000000     5.813000000    -1.599000000
C     3.319000000     7.115000000    -1.460000000
H     3.035000000     7.680000000    -2.344000000
C     3.245000000     7.707000000    -0.228000000
H     2.815000000     8.691000000    -0.065000000
C     3.779000000     7.081000000     0.880000000
H     3.721000000     7.563000000     1.853000000
C     4.294000000     5.750000000     0.758000000
C     4.297000000     5.100000000    -0.486000000
H     4.842000000     4.167000000    -0.604000000
C     1.842000000    -2.506000000    -0.662000000
H     2.174000000    -3.514000000    -0.897000000
C     0.697000000    -2.400000000     0.140000000
H     0.135000000    -3.238000000     0.545000000
C     0.190000000    -1.165000000     0.388000000
H    -0.743000000    -1.071000000     0.896000000
C     0.917000000    -0.016000000    -0.002000000
H     0.430000000     0.925000000     0.241000000
C     2.099000000    -0.094000000    -0.727000000
H     2.614000000     0.793000000    -1.085000000
C     2.561000000    -1.396000000    -1.052000000
C     3.786000000    -1.647000000    -1.854000000
O     4.318000000    -0.659000000    -2.446000000
O     4.351000000    -2.706000000    -1.827000000
O     5.711000000    -6.995000000     2.281000000
H     5.581000000    -6.291000000     1.646000000
H     6.159000000    -6.576000000     3.016000000
O     7.058000000    -3.288000000    -1.676000000
H     6.107000000    -3.267000000    -1.570000000
H     7.318000000    -2.367000000    -1.697000000
O     5.383000000     1.481000000    -1.250000000
H     5.491000000     1.167000000    -0.352000000
H     4.853000000     0.808000000    -1.677000000
O     4.755000000    -6.468000000    -2.160000000
H     4.327000000    -6.056000000    -1.409000000
H     4.788000000    -5.779000000    -2.824000000
O     7.572000000    -0.796000000    -0.839000000
H     8.211000000    -0.838000000    -0.128000000
H     6.953000000    -0.120000000    -0.565000000
O     6.683000000    -0.925000000    -3.631000000
H     5.892000000    -0.905000000    -3.092000000
H     7.403000000    -0.914000000    -3.001000000
O     4.972000000    -4.589000000     0.338000000
H     4.623000000    -4.159000000    -0.442000000
H     4.978000000    -3.904000000     1.007000000
O     5.787000000     0.442000000     1.208000000
H     5.001000000     0.521000000     1.749000000
H     6.124000000    -0.433000000     1.401000000
O     4.325000000    -4.297000000    -6.759000000
H     3.381000000    -4.152000000    -6.826000000
H     4.497000000    -5.030000000    -7.350000000
O     5.406000000    -4.679000000    -4.189000000
H     5.925000000    -3.992000000    -3.770000000
H     5.216000000    -4.337000000    -5.063000000
O     6.256000000    -2.205000000     1.870000000
H     7.161000000    -1.917000000     1.756000000
H     6.271000000    -2.734000000     2.668000000
O     9.982000000    -4.252000000    -1.211000000
H    10.211000000    -4.706000000    -2.022000000
H     9.105000000    -3.904000000    -1.370000000
O     6.658000000     3.229000000    -2.978000000
H     6.362000000     2.716000000    -2.226000000
H     6.640000000     2.614000000    -3.710000000
O     8.099000000     2.503000000     1.538000000
H     7.337000000     2.156000000     1.074000000
H     8.844000000     2.041000000     1.152000000
O     8.716000000    -0.986000000    -6.191000000
H     7.860000000    -1.415000000    -6.201000000
H     8.565000000    -0.161000000    -5.729000000
O     7.201000000    -6.398000000    -1.058000000
H     6.410000000    -6.614000000    -1.553000000
H     7.002000000    -5.558000000    -0.644000000
O     5.640000000    -7.338000000    -4.930000000
H     5.620000000    -6.382000000    -4.889000000
H     5.332000000    -7.621000000    -4.069000000
O     6.193000000    -2.250000000    -6.313000000
H     5.430000000    -2.814000000    -6.440000000
H     5.891000000    -1.570000000    -5.710000000
O     5.994000000     1.343000000    -5.102000000
H     5.056000000     1.538000000    -5.108000000
H     6.069000000     0.545000000    -4.578000000
