215
-1471.23877
C    -0.011000000    -5.029000000     2.353000000
H    -0.547000000    -5.401000000     1.484000000
C    -0.349000000    -3.858000000     3.077000000
C     0.547000000    -3.501000000     4.123000000
H     0.318000000    -2.645000000     4.752000000
C    -1.616000000    -2.993000000     2.828000000
O    -2.658000000    -3.734000000     2.397000000
H    -1.251000000    -2.269000000     2.085000000
O    -1.983000000    -2.220000000     4.045000000
C    -2.501000000    -0.934000000     3.901000000
C    -1.660000000     0.127000000     4.302000000
H    -0.732000000    -0.170000000     4.783000000
C    -2.038000000     1.415000000     4.020000000
O    -1.226000000     2.455000000     4.463000000
C    -3.280000000     1.659000000     3.440000000
C    -3.697000000     3.150000000     3.124000000
H    -4.763000000     3.141000000     2.885000000
C    -3.006000000     3.603000000     1.873000000
C    -3.731000000     3.424000000     0.699000000
H    -4.772000000     3.116000000     0.653000000
H    -3.464000000     3.749000000     4.007000000
C    -4.135000000     0.582000000     3.048000000
H    -5.092000000     0.761000000     2.563000000
C    -3.700000000    -0.729000000     3.217000000
C    -4.650000000    -1.848000000     2.748000000
H    -5.693000000    -1.530000000     2.690000000
H    -4.550000000    -2.689000000     3.436000000
C    -4.192000000    -2.313000000     1.362000000
C    -4.654000000    -1.768000000     0.197000000
H    -5.478000000    -1.065000000     0.291000000
C    -3.232000000    -3.275000000     1.267000000
C    -2.610000000    -3.654000000     0.058000000
H    -1.873000000    -4.448000000    -0.034000000
C    -2.971000000    -2.947000000    -1.071000000
O    -2.364000000    -3.257000000    -2.272000000
C    -1.535000000    -2.245000000    -2.932000000
C    -0.307000000    -2.882000000    -3.539000000
C     0.498000000    -2.286000000    -4.526000000
H     0.210000000    -1.329000000    -4.954000000
C     0.161000000    -4.099000000    -2.939000000
H    -0.439000000    -4.581000000    -2.171000000
O    -2.265000000    -1.521000000    -3.966000000
H    -1.231000000    -1.508000000    -2.174000000
C    -4.068000000    -2.070000000    -1.032000000
C    -4.666000000    -1.500000000    -2.330000000
H    -5.737000000    -1.376000000    -2.155000000
H    -4.673000000    -2.300000000    -3.074000000
C    -3.846000000    -0.272000000    -2.683000000
C    -4.243000000     0.972000000    -2.117000000
H    -5.145000000     1.026000000    -1.513000000
C    -2.706000000    -0.368000000    -3.503000000
C    -1.928000000     0.756000000    -3.824000000
H    -1.099000000     0.716000000    -4.526000000
C    -2.281000000     1.927000000    -3.223000000
O    -1.493000000     2.993000000    -3.516000000
C    -0.644000000     3.368000000    -2.445000000
C     0.777000000     3.629000000    -2.942000000
C     1.252000000     2.931000000    -4.150000000
H     0.591000000     2.345000000    -4.784000000
C     1.735000000     4.405000000    -2.165000000
H     1.419000000     4.887000000    -1.243000000
O    -1.042000000     4.537000000    -1.745000000
H    -0.649000000     2.525000000    -1.739000000
C    -3.404000000     2.088000000    -2.366000000
C    -3.819000000     3.472000000    -1.823000000
H    -4.909000000     3.536000000    -1.792000000
H    -3.638000000     4.265000000    -2.551000000
C    -3.110000000     3.795000000    -0.544000000
C    -1.835000000     4.308000000    -0.550000000
C    -1.232000000     4.614000000     0.680000000
H    -0.267000000     5.106000000     0.581000000
C    -1.766000000     4.205000000     1.875000000
O    -0.973000000     4.263000000     3.028000000
C    -0.413000000     2.992000000     3.397000000
H    -0.580000000     2.401000000     2.484000000
C     1.128000000     2.986000000     3.597000000
C     1.845000000     1.800000000     3.946000000
H     1.353000000     0.836000000     4.055000000
C     1.901000000     4.038000000     3.137000000
H     1.408000000     4.977000000     2.901000000
C     3.297000000     3.984000000     3.166000000
O     4.036000000     5.060000000     2.714000000
C     3.991000000     2.925000000     3.696000000
H     5.062000000     2.929000000     3.881000000
C     3.235000000     1.824000000     4.106000000
O     3.973000000     0.745000000     4.477000000
C     3.414000000    -0.209000000     5.289000000
C     3.163000000    -1.505000000     4.761000000
H     3.386000000    -1.719000000     3.719000000
C     3.096000000     0.045000000     6.603000000
H     3.279000000     1.057000000     6.955000000
C     2.432000000    -0.878000000     7.379000000
H     2.073000000    -0.659000000     8.381000000
C     2.193000000    -2.166000000     6.947000000
H     1.607000000    -2.921000000     7.465000000
C     2.665000000    -2.514000000     5.674000000
O     2.573000000    -3.868000000     5.338000000
C     1.667000000    -4.260000000     4.355000000
C     2.010000000    -5.388000000     3.569000000
H     2.978000000    -5.843000000     3.763000000
C     1.151000000    -5.730000000     2.575000000
O     1.530000000    -6.756000000     1.800000000
C     1.171000000    -7.081000000     0.485000000
C     1.451000000    -6.178000000    -0.560000000
H     1.884000000    -5.235000000    -0.233000000
C     0.563000000    -8.242000000     0.212000000
H     0.275000000    -8.951000000     0.984000000
C     0.247000000    -8.598000000    -1.123000000
H    -0.209000000    -9.578000000    -1.241000000
C     0.632000000    -7.764000000    -2.155000000
H     0.500000000    -8.132000000    -3.169000000
C     1.304000000    -6.567000000    -1.924000000
O     1.963000000    -5.810000000    -2.905000000
C     1.413000000    -4.617000000    -3.376000000
C     2.228000000    -3.935000000    -4.298000000
H     3.123000000    -4.423000000    -4.675000000
C     1.755000000    -2.774000000    -4.932000000
O     2.577000000    -2.227000000    -5.875000000
C     2.438000000    -0.972000000    -6.530000000
C     2.716000000     0.184000000    -5.808000000
H     3.076000000     0.093000000    -4.787000000
C     1.878000000    -0.915000000    -7.752000000
H     1.631000000    -1.845000000    -8.258000000
C     1.746000000     0.275000000    -8.429000000
H     1.502000000     0.279000000    -9.488000000
C     2.116000000     1.441000000    -7.718000000
H     2.159000000     2.367000000    -8.285000000
C     2.497000000     1.426000000    -6.348000000
O     2.994000000     2.589000000    -5.789000000
C     2.493000000     3.121000000    -4.612000000
C     3.403000000     3.854000000    -3.810000000
H     4.423000000     4.052000000    -4.130000000
C     3.084000000     4.420000000    -2.588000000
O     4.010000000     5.328000000    -2.107000000
C     3.766000000     5.947000000    -0.887000000
C     3.122000000     7.188000000    -0.853000000
H     2.972000000     7.804000000    -1.737000000
C     2.843000000     7.715000000     0.408000000
H     2.343000000     8.677000000     0.489000000
C     3.157000000     7.013000000     1.551000000
H     3.018000000     7.453000000     2.536000000
C     3.717000000     5.752000000     1.527000000
C     4.020000000     5.190000000     0.298000000
H     4.444000000     4.189000000     0.308000000
C     1.310000000    -1.088000000    -0.527000000
H     1.473000000    -2.052000000    -1.001000000
C     0.133000000    -0.723000000     0.088000000
H    -0.639000000    -1.481000000     0.195000000
C     0.019000000     0.536000000     0.663000000
H    -0.943000000     0.873000000     1.107000000
C     1.001000000     1.472000000     0.461000000
H     0.875000000     2.487000000     0.829000000
C     2.124000000     1.158000000    -0.343000000
H     2.812000000     1.988000000    -0.479000000
C     2.362000000    -0.143000000    -0.750000000
C     3.550000000    -0.551000000    -1.569000000
O     4.340000000     0.311000000    -1.903000000
O     3.920000000    -1.700000000    -1.492000000
O     6.620000000    -2.173000000    -0.843000000
H     5.737000000    -1.838000000    -0.691000000
H     6.582000000    -2.561000000    -1.717000000
O     5.266000000     1.947000000    -0.107000000
H     5.253000000     1.425000000     0.694000000
H     5.077000000     1.320000000    -0.805000000
O     4.670000000    -6.312000000     1.072000000
H     4.850000000    -5.575000000     1.656000000
H     4.607000000    -5.918000000     0.202000000
O     8.908000000    -0.635000000    -0.819000000
H     8.186000000    -1.262000000    -0.871000000
H     8.516000000     0.203000000    -1.061000000
O     5.931000000    -0.582000000    -3.812000000
H     5.635000000    -0.228000000    -2.974000000
H     5.845000000    -1.530000000    -3.716000000
O     6.012000000    -3.507000000     2.514000000
H     5.716000000    -4.116000000     3.190000000
H     5.322000000    -3.533000000     1.850000000
O     6.983000000    -0.862000000     2.897000000
H     6.808000000    -1.797000000     3.003000000
H     7.013000000    -0.521000000     3.791000000
O     4.440000000    -5.348000000    -1.692000000
H     3.700000000    -5.217000000    -2.284000000
H     4.834000000    -6.171000000    -1.981000000
O     3.881000000    -3.592000000     0.486000000
H     3.829000000    -2.896000000    -0.169000000
H     4.339000000    -4.306000000     0.043000000
O     9.831000000    -3.298000000    -1.567000000
H     9.486000000    -3.330000000    -0.674000000
H     9.887000000    -2.364000000    -1.769000000
O     6.681000000     3.401000000    -2.637000000
H     5.787000000     3.370000000    -2.296000000
H     6.698000000     2.738000000    -3.327000000
O     7.880000000     2.225000000     3.488000000
H     7.803000000     1.310000000     3.219000000
H     8.678000000     2.534000000     3.060000000
O     5.605000000    -3.050000000    -6.489000000
H     5.357000000    -2.863000000    -5.583000000
H     5.036000000    -2.487000000    -7.014000000
O     8.104000000     2.137000000    -0.505000000
H     7.657000000     2.467000000    -1.284000000
H     7.666000000     2.573000000     0.226000000
O     8.836000000     0.261000000    -3.912000000
H     8.290000000    -0.080000000    -3.203000000
H     8.231000000     0.376000000    -4.645000000
O     8.743000000    -3.401000000     0.971000000
H     7.873000000    -3.006000000     0.920000000
H     8.988000000    -3.323000000     1.893000000
O     5.266000000    -3.168000000    -3.198000000
H     5.255000000    -4.005000000    -2.733000000
H     4.625000000    -2.628000000    -2.736000000
O     6.482000000     1.891000000    -5.050000000
H     6.582000000     2.099000000    -5.979000000
H     5.890000000     1.139000000    -5.036000000
O     6.599000000     0.043000000    -7.619000000
H     6.110000000    -0.024000000    -8.439000000
H     6.662000000    -0.858000000    -7.303000000
