215
-1470.55321
C     0.055000000    -5.061000000     2.509000000
H    -0.757000000    -5.367000000     1.855000000
C    -0.090000000    -3.799000000     3.060000000
C     0.975000000    -3.238000000     3.766000000
H     0.934000000    -2.209000000     4.116000000
C    -1.321000000    -2.941000000     2.779000000
O    -2.488000000    -3.732000000     2.423000000
H    -1.014000000    -2.279000000     1.956000000
O    -1.664000000    -2.103000000     3.899000000
C    -2.133000000    -0.836000000     3.776000000
C    -1.219000000     0.234000000     4.032000000
H    -0.242000000     0.093000000     4.487000000
C    -1.566000000     1.519000000     3.833000000
O    -0.653000000     2.483000000     4.218000000
C    -2.906000000     1.832000000     3.427000000
C    -3.381000000     3.210000000     3.127000000
H    -4.470000000     3.140000000     3.091000000
C    -2.862000000     3.710000000     1.787000000
C    -3.692000000     3.499000000     0.655000000
H    -4.701000000     3.110000000     0.766000000
H    -3.078000000     3.810000000     3.987000000
C    -3.781000000     0.809000000     3.177000000
H    -4.750000000     1.080000000     2.767000000
C    -3.418000000    -0.535000000     3.236000000
C    -4.395000000    -1.638000000     2.912000000
H    -5.422000000    -1.279000000     3.011000000
H    -4.273000000    -2.451000000     3.630000000
C    -4.189000000    -2.258000000     1.577000000
C    -4.777000000    -1.776000000     0.393000000
H    -5.546000000    -1.008000000     0.397000000
C    -3.239000000    -3.299000000     1.343000000
C    -2.961000000    -3.775000000     0.026000000
H    -2.275000000    -4.605000000    -0.119000000
C    -3.563000000    -3.205000000    -1.063000000
O    -3.080000000    -3.560000000    -2.271000000
C    -2.145000000    -2.596000000    -2.750000000
C    -0.806000000    -3.258000000    -3.208000000
C     0.163000000    -2.505000000    -3.903000000
H    -0.087000000    -1.483000000    -4.174000000
C    -0.393000000    -4.497000000    -2.691000000
H    -1.033000000    -5.097000000    -2.049000000
O    -2.662000000    -1.791000000    -3.780000000
H    -1.882000000    -1.917000000    -1.926000000
C    -4.385000000    -2.127000000    -0.884000000
C    -5.077000000    -1.417000000    -2.104000000
H    -6.064000000    -1.037000000    -1.831000000
H    -5.248000000    -2.112000000    -2.928000000
C    -4.217000000    -0.266000000    -2.572000000
C    -4.579000000     1.064000000    -2.313000000
H    -5.524000000     1.308000000    -1.835000000
C    -3.099000000    -0.494000000    -3.459000000
C    -2.284000000     0.587000000    -3.887000000
H    -1.441000000     0.416000000    -4.551000000
C    -2.558000000     1.914000000    -3.414000000
O    -1.568000000     2.873000000    -3.686000000
C    -0.678000000     3.266000000    -2.575000000
C     0.745000000     3.408000000    -3.036000000
C     1.150000000     2.681000000    -4.141000000
H     0.492000000     1.977000000    -4.644000000
C     1.619000000     4.370000000    -2.497000000
H     1.302000000     4.980000000    -1.655000000
O    -1.183000000     4.393000000    -1.813000000
H    -0.694000000     2.383000000    -1.920000000
C    -3.673000000     2.103000000    -2.595000000
C    -3.932000000     3.470000000    -1.912000000
H    -4.996000000     3.642000000    -1.736000000
H    -3.696000000     4.231000000    -2.658000000
C    -3.169000000     3.769000000    -0.606000000
C    -1.814000000     4.200000000    -0.631000000
C    -1.038000000     4.447000000     0.490000000
H     0.004000000     4.737000000     0.376000000
C    -1.577000000     4.246000000     1.715000000
O    -0.735000000     4.302000000     2.817000000
C     0.011000000     3.102000000     3.119000000
H    -0.137000000     2.356000000     2.325000000
C     1.480000000     3.266000000     3.419000000
C     2.180000000     2.199000000     4.005000000
H     1.708000000     1.373000000     4.531000000
C     2.172000000     4.318000000     2.893000000
H     1.648000000     5.099000000     2.347000000
C     3.567000000     4.381000000     2.922000000
O     4.261000000     5.440000000     2.307000000
C     4.264000000     3.385000000     3.609000000
H     5.350000000     3.431000000     3.616000000
C     3.587000000     2.280000000     4.115000000
O     4.358000000     1.346000000     4.711000000
C     3.940000000     0.168000000     5.215000000
C     3.901000000    -0.983000000     4.437000000
H     3.932000000    -0.973000000     3.350000000
C     3.965000000     0.030000000     6.647000000
H     4.213000000     0.967000000     7.139000000
C     3.763000000    -1.166000000     7.268000000
H     3.798000000    -1.292000000     8.347000000
C     3.516000000    -2.272000000     6.466000000
H     3.186000000    -3.204000000     6.916000000
C     3.564000000    -2.162000000     5.081000000
O     3.346000000    -3.364000000     4.336000000
C     2.188000000    -3.861000000     3.848000000
C     2.272000000    -5.177000000     3.350000000
H     3.205000000    -5.733000000     3.404000000
C     1.210000000    -5.825000000     2.650000000
O     1.365000000    -6.963000000     1.958000000
C     0.805000000    -7.210000000     0.687000000
C     1.222000000    -6.610000000    -0.474000000
H     1.974000000    -5.825000000    -0.485000000
C    -0.121000000    -8.216000000     0.602000000
H    -0.400000000    -8.735000000     1.515000000
C    -0.651000000    -8.542000000    -0.635000000
H    -1.328000000    -9.391000000    -0.670000000
C    -0.268000000    -7.929000000    -1.806000000
H    -0.690000000    -8.293000000    -2.740000000
C     0.691000000    -6.989000000    -1.686000000
O     1.122000000    -6.352000000    -2.804000000
C     0.870000000    -5.062000000    -3.079000000
C     1.709000000    -4.381000000    -3.950000000
H     2.673000000    -4.783000000    -4.253000000
C     1.399000000    -3.090000000    -4.381000000
O     2.362000000    -2.381000000    -5.069000000
C     2.107000000    -1.227000000    -5.790000000
C     2.548000000     0.054000000    -5.403000000
H     3.204000000     0.184000000    -4.546000000
C     1.282000000    -1.371000000    -6.900000000
H     0.846000000    -2.343000000    -7.115000000
C     0.968000000    -0.256000000    -7.699000000
H     0.270000000    -0.355000000    -8.526000000
C     1.387000000     1.013000000    -7.288000000
H     1.071000000     1.881000000    -7.861000000
C     2.219000000     1.148000000    -6.241000000
O     2.835000000     2.311000000    -5.898000000
C     2.372000000     2.940000000    -4.710000000
C     3.260000000     3.845000000    -4.194000000
H     4.269000000     3.878000000    -4.597000000
C     2.920000000     4.613000000    -3.143000000
O     3.853000000     5.458000000    -2.509000000
C     3.680000000     6.101000000    -1.296000000
C     3.407000000     7.482000000    -1.220000000
H     3.220000000     8.099000000    -2.095000000
C     3.345000000     8.140000000     0.061000000
H     3.168000000     9.211000000     0.115000000
C     3.595000000     7.418000000     1.232000000
H     3.621000000     7.930000000     2.191000000
C     3.912000000     6.033000000     1.139000000
C     3.935000000     5.395000000    -0.135000000
H     4.278000000     4.366000000    -0.205000000
C     1.309000000    -1.452000000     0.240000000
H     1.947000000    -2.313000000     0.421000000
C    -0.078000000    -1.592000000     0.014000000
H    -0.422000000    -2.623000000    -0.001000000
C    -0.906000000    -0.501000000     0.095000000
H    -1.970000000    -0.685000000     0.004000000
C    -0.419000000     0.763000000     0.230000000
H    -1.156000000     1.556000000     0.330000000
C     1.014000000     0.933000000     0.354000000
H     1.366000000     1.955000000     0.465000000
C     1.866000000    -0.177000000     0.283000000
C     3.386000000    -0.020000000     0.221000000
O     3.758000000     1.099000000     0.115000000
O     4.132000000    -0.969000000     0.107000000
O     6.124000000    -1.290000000     1.697000000
H     6.745000000    -1.521000000     1.006000000
H     5.329000000    -1.035000000     1.230000000
O     7.405000000     2.084000000    -3.387000000
H     6.677000000     1.673000000    -2.921000000
H     7.841000000     2.621000000    -2.726000000
O     8.572000000    -2.241000000    -2.947000000
H     8.855000000    -2.058000000    -3.843000000
H     8.309000000    -3.161000000    -2.962000000
O     6.086000000     1.574000000     1.202000000
H     6.170000000     0.661000000     1.474000000
H     5.243000000     1.613000000     0.750000000
O     5.554000000    -5.742000000     2.727000000
H     5.929000000    -5.412000000     3.543000000
H     5.315000000    -4.955000000     2.238000000
O     5.157000000     0.664000000    -2.214000000
H     5.604000000     0.037000000    -1.646000000
H     4.517000000     1.090000000    -1.644000000
O     7.343000000    -0.078000000     6.246000000
H     7.482000000     0.459000000     5.466000000
H     6.846000000     0.485000000     6.839000000
O     7.549000000    -2.179000000    -0.360000000
H     8.154000000    -1.565000000    -0.775000000
H     6.957000000    -2.446000000    -1.064000000
O     4.960000000    -5.040000000    -1.892000000
H     4.751000000    -5.805000000    -1.356000000
H     5.847000000    -5.206000000    -2.211000000
O     4.899000000    -3.614000000     1.056000000
H     4.589000000    -3.233000000     0.235000000
H     5.425000000    -2.922000000     1.458000000
O     8.798000000    -4.377000000     0.683000000
H     9.429000000    -4.517000000    -0.023000000
H     8.370000000    -3.550000000     0.460000000
O     8.123000000     2.953000000    -0.638000000
H     7.387000000     2.984000000    -0.026000000
H     8.631000000     2.190000000    -0.363000000
O     7.424000000     1.334000000     3.941000000
H     7.512000000     2.279000000     4.064000000
H     6.748000000     1.241000000     3.270000000
O     5.137000000    -2.310000000    -4.845000000
H     5.215000000    -2.527000000    -3.916000000
H     4.198000000    -2.359000000    -5.024000000
O     9.599000000     0.110000000     2.402000000
H     8.754000000     0.369000000     2.770000000
H     9.851000000    -0.665000000     2.903000000
O     9.672000000     0.387000000    -0.410000000
H     9.529000000     0.637000000     0.503000000
H    10.334000000    -0.303000000    -0.368000000
O     8.191000000    -2.080000000     4.369000000
H     7.722000000    -1.724000000     3.615000000
H     7.722000000    -1.735000000     5.129000000
O     5.215000000    -2.277000000    -2.042000000
H     4.890000000    -3.177000000    -2.002000000
H     4.639000000    -1.789000000    -1.453000000
O     5.586000000     0.550000000    -5.045000000
H     5.592000000     0.703000000    -4.100000000
H     5.269000000    -0.347000000    -5.141000000
