215
-1440.70720
C     0.543000000    -3.330000000     4.024000000
H     0.082000000    -3.887000000     3.212000000
C    -0.211000000    -2.273000000     4.469000000
C     0.381000000    -1.382000000     5.377000000
H    -0.132000000    -0.500000000     5.754000000
C    -1.495000000    -1.921000000     3.784000000
O    -2.287000000    -3.024000000     3.446000000
H    -1.175000000    -1.484000000     2.827000000
O    -2.247000000    -0.944000000     4.487000000
C    -2.810000000     0.054000000     3.717000000
C    -2.247000000     1.324000000     3.743000000
H    -1.345000000     1.419000000     4.342000000
C    -2.752000000     2.304000000     2.947000000
O    -1.903000000     3.395000000     2.925000000
C    -3.847000000     2.098000000     2.064000000
C    -4.408000000     3.286000000     1.125000000
H    -5.446000000     3.054000000     0.879000000
C    -3.634000000     3.276000000    -0.188000000
C    -4.022000000     2.487000000    -1.235000000
H    -4.940000000     1.952000000    -1.004000000
H    -4.309000000     4.183000000     1.741000000
C    -4.472000000     0.837000000     2.100000000
H    -5.336000000     0.640000000     1.471000000
C    -3.963000000    -0.231000000     2.921000000
C    -4.561000000    -1.577000000     2.839000000
H    -5.630000000    -1.436000000     2.662000000
H    -4.477000000    -2.136000000     3.773000000
C    -3.887000000    -2.381000000     1.794000000
C    -4.456000000    -2.509000000     0.509000000
H    -5.442000000    -2.099000000     0.306000000
C    -2.706000000    -3.119000000     2.116000000
C    -2.029000000    -3.855000000     1.129000000
H    -1.070000000    -4.293000000     1.392000000
C    -2.515000000    -3.767000000    -0.152000000
O    -1.775000000    -4.423000000    -1.085000000
C    -0.886000000    -3.666000000    -1.914000000
C     0.518000000    -4.309000000    -2.090000000
C     1.441000000    -3.892000000    -3.043000000
H     1.142000000    -3.051000000    -3.664000000
C     0.920000000    -5.291000000    -1.138000000
H     0.243000000    -5.674000000    -0.378000000
O    -1.531000000    -3.385000000    -3.167000000
H    -0.733000000    -2.735000000    -1.349000000
C    -3.744000000    -3.134000000    -0.515000000
C    -4.227000000    -3.037000000    -1.940000000
H    -5.298000000    -2.831000000    -1.986000000
H    -4.074000000    -4.035000000    -2.356000000
C    -3.422000000    -1.964000000    -2.723000000
C    -3.921000000    -0.688000000    -2.797000000
H    -4.868000000    -0.524000000    -2.290000000
C    -2.147000000    -2.118000000    -3.333000000
C    -1.584000000    -1.157000000    -4.136000000
H    -0.678000000    -1.334000000    -4.710000000
C    -2.135000000     0.085000000    -4.270000000
O    -1.288000000     1.002000000    -4.825000000
C    -0.624000000     1.838000000    -3.954000000
C     0.785000000     2.157000000    -4.467000000
C     1.633000000     1.228000000    -5.028000000
H     1.328000000     0.231000000    -5.334000000
C     1.334000000     3.460000000    -4.142000000
H     0.736000000     4.309000000    -3.820000000
O    -1.372000000     3.099000000    -3.766000000
H    -0.498000000     1.368000000    -2.968000000
C    -3.276000000     0.319000000    -3.531000000
C    -3.922000000     1.713000000    -3.623000000
H    -4.998000000     1.687000000    -3.441000000
H    -3.648000000     2.217000000    -4.552000000
C    -3.412000000     2.558000000    -2.473000000
C    -2.173000000     3.235000000    -2.629000000
C    -1.693000000     3.858000000    -1.553000000
H    -0.760000000     4.416000000    -1.549000000
C    -2.368000000     3.943000000    -0.321000000
O    -1.797000000     4.613000000     0.786000000
C    -1.129000000     3.637000000     1.653000000
H    -1.041000000     2.664000000     1.147000000
C     0.282000000     4.019000000     1.915000000
C     1.036000000     3.472000000     2.965000000
H     0.585000000     2.675000000     3.550000000
C     0.945000000     5.002000000     1.189000000
H     0.435000000     5.392000000     0.311000000
C     2.257000000     5.421000000     1.430000000
O     2.884000000     6.350000000     0.646000000
C     2.888000000     4.883000000     2.600000000
H     3.811000000     5.313000000     2.981000000
C     2.298000000     3.885000000     3.345000000
O     2.966000000     3.393000000     4.418000000
C     2.362000000     2.738000000     5.446000000
C     2.711000000     1.360000000     5.638000000
H     3.483000000     0.789000000     5.129000000
C     1.427000000     3.326000000     6.347000000
H     1.189000000     4.375000000     6.188000000
C     0.940000000     2.623000000     7.466000000
H     0.291000000     3.112000000     8.187000000
C     1.301000000     1.254000000     7.585000000
H     0.803000000     0.661000000     8.349000000
C     2.093000000     0.687000000     6.684000000
O     2.216000000    -0.675000000     6.763000000
C     1.717000000    -1.536000000     5.790000000
C     2.426000000    -2.593000000     5.355000000
H     3.442000000    -2.759000000     5.704000000
C     1.885000000    -3.512000000     4.480000000
O     2.618000000    -4.630000000     4.049000000
C     2.121000000    -5.648000000     3.192000000
C     2.410000000    -5.616000000     1.806000000
H     3.016000000    -4.797000000     1.428000000
C     1.379000000    -6.610000000     3.769000000
H     1.188000000    -6.428000000     4.823000000
C     0.908000000    -7.697000000     3.005000000
H     0.263000000    -8.455000000     3.442000000
C     1.243000000    -7.741000000     1.636000000
H     0.951000000    -8.587000000     1.019000000
C     2.049000000    -6.728000000     1.020000000
O     2.489000000    -6.878000000    -0.247000000
C     2.129000000    -5.931000000    -1.206000000
C     3.131000000    -5.464000000    -2.061000000
H     4.165000000    -5.793000000    -2.006000000
C     2.758000000    -4.442000000    -2.961000000
O     3.761000000    -3.947000000    -3.853000000
C     3.524000000    -3.011000000    -4.840000000
C     3.631000000    -1.654000000    -4.584000000
H     3.744000000    -1.318000000    -3.557000000
C     3.218000000    -3.510000000    -6.118000000
H     3.379000000    -4.577000000    -6.242000000
C     2.974000000    -2.564000000    -7.122000000
H     2.509000000    -2.923000000    -8.037000000
C     3.280000000    -1.239000000    -6.956000000
H     3.088000000    -0.496000000    -7.725000000
C     3.661000000    -0.795000000    -5.690000000
O     3.916000000     0.597000000    -5.597000000
C     3.006000000     1.495000000    -5.077000000
C     3.454000000     2.737000000    -4.747000000
H     4.495000000     2.996000000    -4.919000000
C     2.629000000     3.752000000    -4.340000000
O     3.272000000     4.932000000    -4.011000000
C     2.782000000     5.872000000    -3.062000000
C     2.397000000     7.163000000    -3.409000000
H     2.359000000     7.449000000    -4.456000000
C     2.154000000     8.160000000    -2.493000000
H     1.828000000     9.117000000    -2.891000000
C     2.265000000     7.806000000    -1.134000000
H     1.989000000     8.556000000    -0.397000000
C     2.656000000     6.513000000    -0.759000000
C     2.987000000     5.563000000    -1.723000000
H     3.214000000     4.556000000    -1.385000000
C     2.799000000    -1.119000000     0.308000000
H     3.390000000    -1.962000000     0.656000000
C     1.596000000    -0.827000000     0.875000000
H     1.179000000    -1.467000000     1.649000000
C     0.877000000     0.223000000     0.463000000
H    -0.181000000     0.370000000     0.916000000
C     1.229000000     0.902000000    -0.675000000
H     0.521000000     1.677000000    -0.957000000
C     2.483000000     0.653000000    -1.266000000
H     2.933000000     1.292000000    -2.021000000
C     3.244000000    -0.419000000    -0.773000000
C     4.701000000    -0.585000000    -1.213000000
O     5.332000000     0.413000000    -1.620000000
O     5.314000000    -1.632000000    -1.084000000
O     7.089000000     2.222000000    -6.432000000
H     6.931000000     1.532000000    -7.077000000
H     6.902000000     1.809000000    -5.589000000
O     5.757000000    -5.935000000    -4.485000000
H     5.731000000    -5.666000000    -5.404000000
H     5.516000000    -5.147000000    -3.998000000
O     7.928000000     0.405000000     1.273000000
H     7.338000000    -0.336000000     1.412000000
H     8.015000000     0.467000000     0.322000000
O     8.911000000     2.667000000     2.413000000
H     8.277000000     3.314000000     2.721000000
H     8.377000000     1.968000000     2.036000000
O     8.900000000    -4.855000000    -2.477000000
H     9.484000000    -4.226000000    -2.052000000
H     8.119000000    -4.346000000    -2.695000000
O    10.529000000    -1.434000000    -3.423000000
H    10.008000000    -1.626000000    -2.644000000
H    11.044000000    -2.228000000    -3.568000000
O     5.300000000     0.115000000     3.474000000
H     5.376000000    -0.789000000     3.170000000
H     4.710000000     0.531000000     2.846000000
O     6.715000000     0.876000000    -3.745000000
H     6.157000000     0.502000000    -3.063000000
H     6.710000000     1.817000000    -3.568000000
O     6.947000000    -2.222000000     0.842000000
H     6.360000000    -2.096000000     0.096000000
H     6.637000000    -3.028000000     1.257000000
O     6.815000000    -3.277000000    -3.047000000
H     6.465000000    -3.011000000    -3.898000000
H     6.408000000    -2.676000000    -2.423000000
O     9.204000000    -2.177000000    -0.898000000
H     8.748000000    -1.348000000    -1.039000000
H     8.717000000    -2.601000000    -0.191000000
O     8.399000000     0.383000000    -1.327000000
H     9.014000000     0.928000000    -1.818000000
H     7.536000000     0.660000000    -1.635000000
O     3.312000000     1.409000000     2.015000000
H     2.797000000     0.976000000     1.334000000
H     3.974000000     1.907000000     1.535000000
O     6.658000000    -1.082000000    -5.629000000
H     6.195000000    -0.808000000    -6.421000000
H     6.538000000    -0.355000000    -5.018000000
O     5.875000000     5.173000000     1.121000000
H     5.797000000     4.555000000     1.849000000
H     5.489000000     4.714000000     0.375000000
O     8.308000000     4.154000000    -0.283000000
H     8.056000000     4.631000000     0.508000000
H     7.598000000     3.527000000    -0.421000000
O     6.541000000     3.599000000    -2.957000000
H     5.855000000     4.242000000    -3.138000000
H     7.295000000     3.906000000    -3.460000000
O     5.532000000     2.806000000    -0.622000000
H     5.408000000     1.867000000    -0.756000000
H     6.003000000     3.099000000    -1.402000000
O     6.728000000    -5.683000000    -0.837000000
H     6.844000000    -5.305000000     0.035000000
H     7.490000000    -5.384000000    -1.332000000
