215
-1440.67813
C    -0.053000000    -4.413000000     2.981000000
H    -0.387000000    -4.865000000     2.050000000
C    -0.617000000    -3.235000000     3.495000000
C    -0.018000000    -2.646000000     4.621000000
H    -0.444000000    -1.758000000     5.081000000
C    -1.896000000    -2.692000000     2.989000000
O    -2.670000000    -3.688000000     2.221000000
H    -1.733000000    -1.867000000     2.280000000
O    -2.700000000    -2.043000000     3.925000000
C    -3.185000000    -0.785000000     3.650000000
C    -2.344000000     0.297000000     3.940000000
H    -1.399000000     0.240000000     4.473000000
C    -2.539000000     1.553000000     3.281000000
O    -1.675000000     2.541000000     3.500000000
C    -3.677000000     1.707000000     2.501000000
C    -4.006000000     3.080000000     1.997000000
H    -5.068000000     3.270000000     1.827000000
C    -3.283000000     3.553000000     0.727000000
C    -3.785000000     3.282000000    -0.542000000
H    -4.709000000     2.715000000    -0.620000000
H    -3.751000000     3.720000000     2.844000000
C    -4.458000000     0.627000000     2.198000000
H    -5.240000000     0.648000000     1.443000000
C    -4.211000000    -0.616000000     2.729000000
C    -4.948000000    -1.770000000     2.102000000
H    -5.989000000    -1.509000000     1.901000000
H    -5.025000000    -2.535000000     2.878000000
C    -4.221000000    -2.333000000     0.833000000
C    -4.596000000    -1.989000000    -0.458000000
H    -5.432000000    -1.305000000    -0.575000000
C    -3.177000000    -3.266000000     1.017000000
C    -2.627000000    -3.812000000    -0.109000000
H    -1.790000000    -4.492000000     0.028000000
C    -2.913000000    -3.375000000    -1.356000000
O    -2.086000000    -3.819000000    -2.347000000
C    -1.152000000    -2.860000000    -2.875000000
C     0.186000000    -3.584000000    -3.104000000
C     1.010000000    -3.091000000    -4.150000000
H     0.603000000    -2.330000000    -4.810000000
C     0.687000000    -4.458000000    -2.167000000
H     0.112000000    -4.632000000    -1.262000000
O    -1.703000000    -2.321000000    -4.073000000
H    -0.947000000    -2.069000000    -2.138000000
C    -3.884000000    -2.431000000    -1.535000000
C    -4.375000000    -1.949000000    -2.916000000
H    -5.419000000    -1.638000000    -2.835000000
H    -4.382000000    -2.733000000    -3.677000000
C    -3.497000000    -0.798000000    -3.312000000
C    -3.953000000     0.502000000    -3.283000000
H    -4.928000000     0.675000000    -2.836000000
C    -2.185000000    -0.975000000    -3.837000000
C    -1.448000000     0.115000000    -4.311000000
H    -0.498000000     0.056000000    -4.837000000
C    -1.894000000     1.408000000    -4.006000000
O    -1.033000000     2.523000000    -4.268000000
C    -0.430000000     3.049000000    -3.151000000
C     1.130000000     3.229000000    -3.312000000
C     1.836000000     2.258000000    -4.062000000
H     1.392000000     1.480000000    -4.679000000
C     1.789000000     4.250000000    -2.690000000
H     1.210000000     5.038000000    -2.215000000
O    -1.028000000     4.308000000    -2.744000000
H    -0.609000000     2.398000000    -2.283000000
C    -3.144000000     1.616000000    -3.420000000
C    -3.613000000     3.018000000    -2.969000000
H    -4.691000000     3.072000000    -2.801000000
H    -3.430000000     3.784000000    -3.726000000
C    -3.016000000     3.511000000    -1.664000000
C    -1.779000000     4.213000000    -1.584000000
C    -1.336000000     4.521000000    -0.301000000
H    -0.347000000     4.943000000    -0.141000000
C    -2.088000000     4.235000000     0.804000000
O    -1.394000000     4.293000000     2.005000000
C    -0.811000000     3.080000000     2.444000000
H    -0.711000000     2.427000000     1.564000000
C     0.603000000     3.355000000     2.953000000
C     1.351000000     2.277000000     3.510000000
H     0.880000000     1.368000000     3.875000000
C     1.380000000     4.483000000     2.511000000
H     0.878000000     5.107000000     1.776000000
C     2.711000000     4.627000000     2.838000000
O     3.405000000     5.753000000     2.489000000
C     3.339000000     3.608000000     3.557000000
H     4.363000000     3.677000000     3.914000000
C     2.689000000     2.447000000     3.920000000
O     3.416000000     1.503000000     4.714000000
C     2.836000000     0.782000000     5.670000000
C     2.606000000    -0.601000000     5.465000000
H     2.773000000    -1.071000000     4.499000000
C     2.513000000     1.362000000     6.899000000
H     2.732000000     2.422000000     6.994000000
C     2.012000000     0.647000000     7.970000000
H     1.716000000     1.160000000     8.881000000
C     1.763000000    -0.719000000     7.790000000
H     1.254000000    -1.213000000     8.613000000
C     2.057000000    -1.366000000     6.572000000
O     1.607000000    -2.687000000     6.397000000
C     1.085000000    -3.205000000     5.303000000
C     1.550000000    -4.428000000     4.835000000
H     2.404000000    -4.875000000     5.338000000
C     1.001000000    -5.024000000     3.660000000
O     1.502000000    -6.220000000     3.215000000
C     1.399000000    -6.715000000     1.951000000
C     1.980000000    -6.061000000     0.866000000
H     2.572000000    -5.158000000     0.995000000
C     0.664000000    -7.879000000     1.760000000
H     0.273000000    -8.404000000     2.628000000
C     0.517000000    -8.403000000     0.482000000
H    -0.081000000    -9.309000000     0.427000000
C     1.068000000    -7.737000000    -0.625000000
H     1.042000000    -8.163000000    -1.624000000
C     1.869000000    -6.589000000    -0.435000000
O     2.451000000    -5.950000000    -1.474000000
C     1.968000000    -4.917000000    -2.210000000
C     2.735000000    -4.556000000    -3.341000000
H     3.725000000    -4.955000000    -3.549000000
C     2.256000000    -3.649000000    -4.272000000
O     3.013000000    -3.303000000    -5.374000000
C     3.008000000    -1.972000000    -5.821000000
C     3.403000000    -0.949000000    -5.011000000
H     3.789000000    -1.206000000    -4.028000000
C     2.689000000    -1.750000000    -7.180000000
H     2.383000000    -2.580000000    -7.811000000
C     2.677000000    -0.454000000    -7.670000000
H     2.556000000    -0.322000000    -8.742000000
C     3.032000000     0.628000000    -6.848000000
H     3.211000000     1.602000000    -7.294000000
C     3.414000000     0.345000000    -5.528000000
O     3.990000000     1.336000000    -4.785000000
C     3.256000000     2.224000000    -4.006000000
C     3.898000000     3.295000000    -3.410000000
H     4.976000000     3.425000000    -3.457000000
C     3.170000000     4.284000000    -2.757000000
O     3.989000000     5.199000000    -2.087000000
C     3.481000000     5.951000000    -1.088000000
C     2.877000000     7.166000000    -1.284000000
H     2.781000000     7.463000000    -2.326000000
C     2.447000000     7.929000000    -0.199000000
H     2.007000000     8.900000000    -0.410000000
C     2.646000000     7.457000000     1.088000000
H     2.249000000     7.957000000     1.968000000
C     3.170000000     6.230000000     1.251000000
C     3.572000000     5.459000000     0.200000000
H     3.934000000     4.470000000     0.468000000
C     1.812000000    -1.372000000    -0.428000000
H     2.254000000    -2.358000000    -0.541000000
C     0.494000000    -1.226000000    -0.088000000
H    -0.159000000    -2.092000000    -0.009000000
C    -0.043000000     0.042000000     0.037000000
H    -1.110000000     0.121000000     0.203000000
C     0.748000000     1.220000000    -0.071000000
H     0.355000000     2.232000000    -0.028000000
C     2.088000000     1.023000000    -0.427000000
H     2.776000000     1.848000000    -0.595000000
C     2.615000000    -0.289000000    -0.643000000
C     4.022000000    -0.403000000    -0.977000000
O     4.755000000     0.590000000    -0.830000000
O     4.487000000    -1.523000000    -1.008000000
O     6.059000000    -6.245000000     0.019000000
H     7.000000000    -6.088000000    -0.057000000
H     5.992000000    -7.046000000     0.539000000
O     6.389000000     1.366000000     3.186000000
H     6.575000000     1.068000000     2.295000000
H     6.588000000     0.609000000     3.737000000
O     6.794000000    -1.051000000     4.305000000
H     6.623000000    -1.993000000     4.335000000
H     7.150000000    -0.845000000     5.169000000
O     7.588000000    -4.137000000     1.964000000
H     6.727000000    -3.720000000     1.938000000
H     8.138000000    -3.522000000     2.450000000
O     6.806000000     0.096000000    -2.527000000
H     7.579000000     0.316000000    -2.008000000
H     6.102000000     0.010000000    -1.883000000
O     9.217000000     0.853000000    -1.354000000
H     9.283000000     1.537000000    -0.687000000
H     9.826000000     0.174000000    -1.062000000
O     4.389000000    -4.757000000     2.959000000
H     4.040000000    -3.973000000     2.534000000
H     4.698000000    -5.303000000     2.236000000
O     3.746000000    -2.603000000     1.483000000
H     3.951000000    -2.057000000     0.724000000
H     2.931000000    -2.238000000     1.827000000
O     6.558000000     1.824000000    -5.185000000
H     7.052000000     1.491000000    -4.436000000
H     5.642000000     1.665000000    -4.957000000
O     6.362000000    -0.570000000     1.100000000
H     5.798000000    -0.025000000     0.550000000
H     7.108000000    -0.783000000     0.540000000
O     6.233000000     2.546000000    -0.126000000
H     5.507000000     2.022000000    -0.466000000
H     6.519000000     3.072000000    -0.873000000
O     7.366000000     3.559000000     2.096000000
H     7.169000000     3.042000000     2.877000000
H     6.918000000     3.098000000     1.386000000
O     6.695000000    -4.489000000    -5.604000000
H     6.554000000    -3.738000000    -5.027000000
H     5.825000000    -4.873000000    -5.712000000
O     6.367000000    -1.905000000    -6.953000000
H     6.024000000    -2.439000000    -6.236000000
H     5.891000000    -2.208000000    -7.726000000
O     9.063000000    -3.452000000    -0.304000000
H     9.065000000    -3.673000000     0.628000000
H     8.136000000    -3.369000000    -0.528000000
O     7.015000000    -5.720000000    -2.751000000
H     7.024000000    -4.867000000    -2.317000000
H     7.927000000    -5.872000000    -2.999000000
O     5.974000000    -3.673000000    -1.057000000
H     5.736000000    -4.546000000    -0.747000000
H     5.350000000    -3.087000000    -0.628000000
O     6.312000000    -2.475000000    -3.549000000
H     6.044000000    -2.871000000    -2.720000000
H     6.495000000    -1.561000000    -3.329000000
O     9.364000000    -3.136000000    -4.715000000
H     8.600000000    -3.596000000    -5.064000000
H     9.042000000    -2.704000000    -3.924000000
