215
-1425.63661
C    -0.115000000    -4.791000000     3.366000000
H    -0.745000000    -5.365000000     2.691000000
C    -0.463000000    -3.465000000     3.721000000
C     0.499000000    -2.730000000     4.386000000
H     0.143000000    -1.755000000     4.711000000
C    -1.637000000    -2.800000000     3.110000000
O    -2.525000000    -3.700000000     2.513000000
H    -1.204000000    -2.304000000     2.229000000
O    -2.435000000    -1.901000000     3.876000000
C    -2.748000000    -0.718000000     3.301000000
C    -1.961000000     0.356000000     3.612000000
H    -1.064000000     0.350000000     4.225000000
C    -2.352000000     1.597000000     3.094000000
O    -1.550000000     2.665000000     3.315000000
C    -3.600000000     1.725000000     2.487000000
C    -4.028000000     3.088000000     2.030000000
H    -5.113000000     3.207000000     1.992000000
C    -3.348000000     3.382000000     0.756000000
C    -4.013000000     3.064000000    -0.481000000
H    -4.995000000     2.608000000    -0.384000000
H    -3.638000000     3.741000000     2.813000000
C    -4.427000000     0.638000000     2.273000000
H    -5.389000000     0.760000000     1.783000000
C    -3.989000000    -0.641000000     2.614000000
C    -4.823000000    -1.865000000     2.229000000
H    -5.832000000    -1.521000000     1.993000000
H    -4.987000000    -2.463000000     3.128000000
C    -4.132000000    -2.610000000     1.085000000
C    -4.612000000    -2.247000000    -0.122000000
H    -5.508000000    -1.641000000    -0.226000000
C    -3.018000000    -3.504000000     1.202000000
C    -2.476000000    -4.079000000     0.085000000
H    -1.648000000    -4.765000000     0.245000000
C    -2.921000000    -3.664000000    -1.144000000
O    -2.083000000    -4.024000000    -2.169000000
C    -1.177000000    -3.020000000    -2.481000000
C     0.333000000    -3.486000000    -2.662000000
C     1.250000000    -2.681000000    -3.365000000
H     0.953000000    -1.731000000    -3.801000000
C     0.675000000    -4.584000000    -1.994000000
H    -0.111000000    -5.039000000    -1.397000000
O    -1.640000000    -2.465000000    -3.711000000
H    -1.144000000    -2.201000000    -1.747000000
C    -4.020000000    -2.797000000    -1.282000000
C    -4.443000000    -2.338000000    -2.659000000
H    -5.475000000    -1.981000000    -2.683000000
H    -4.459000000    -3.230000000    -3.288000000
C    -3.569000000    -1.164000000    -3.069000000
C    -4.029000000     0.121000000    -2.896000000
H    -4.956000000     0.386000000    -2.396000000
C    -2.305000000    -1.312000000    -3.699000000
C    -1.648000000    -0.239000000    -4.215000000
H    -0.665000000    -0.428000000    -4.639000000
C    -2.072000000     1.070000000    -3.890000000
O    -1.188000000     2.083000000    -4.269000000
C    -0.558000000     2.926000000    -3.306000000
C     0.839000000     3.337000000    -3.649000000
C     1.640000000     2.444000000    -4.413000000
H     1.213000000     1.513000000    -4.776000000
C     1.379000000     4.444000000    -3.074000000
H     0.764000000     5.099000000    -2.462000000
O    -1.416000000     4.031000000    -3.025000000
H    -0.525000000     2.370000000    -2.358000000
C    -3.270000000     1.259000000    -3.277000000
C    -3.877000000     2.669000000    -3.130000000
H    -4.935000000     2.440000000    -2.989000000
H    -3.803000000     3.275000000    -4.035000000
C    -3.385000000     3.330000000    -1.780000000
C    -2.117000000     3.954000000    -1.832000000
C    -1.530000000     4.313000000    -0.631000000
H    -0.627000000     4.917000000    -0.614000000
C    -2.113000000     4.006000000     0.607000000
O    -1.315000000     4.218000000     1.641000000
C    -0.702000000     3.131000000     2.264000000
H    -0.568000000     2.274000000     1.588000000
C     0.683000000     3.612000000     2.834000000
C     1.254000000     2.843000000     3.851000000
H     0.640000000     2.099000000     4.353000000
C     1.453000000     4.540000000     2.155000000
H     0.970000000     5.003000000     1.298000000
C     2.766000000     4.830000000     2.581000000
O     3.537000000     5.838000000     1.882000000
C     3.345000000     4.089000000     3.570000000
H     4.309000000     4.404000000     3.962000000
C     2.617000000     3.036000000     4.174000000
O     3.321000000     2.307000000     5.075000000
C     2.801000000     1.195000000     5.661000000
C     3.143000000    -0.105000000     5.208000000
H     3.900000000    -0.225000000     4.437000000
C     2.145000000     1.348000000     6.847000000
H     1.980000000     2.361000000     7.204000000
C     1.616000000     0.195000000     7.510000000
H     1.024000000     0.285000000     8.417000000
C     1.805000000    -1.101000000     6.983000000
H     1.327000000    -1.898000000     7.548000000
C     2.599000000    -1.218000000     5.828000000
O     2.745000000    -2.494000000     5.333000000
C     1.721000000    -3.272000000     4.840000000
C     2.036000000    -4.624000000     4.498000000
H     2.998000000    -5.098000000     4.676000000
C     1.111000000    -5.329000000     3.679000000
O     1.448000000    -6.494000000     3.227000000
C     1.217000000    -6.957000000     1.922000000
C     1.821000000    -6.325000000     0.823000000
H     2.634000000    -5.621000000     0.978000000
C     0.257000000    -7.896000000     1.681000000
H    -0.311000000    -8.266000000     2.531000000
C     0.091000000    -8.474000000     0.405000000
H    -0.555000000    -9.327000000     0.213000000
C     0.843000000    -7.995000000    -0.641000000
H     0.707000000    -8.493000000    -1.598000000
C     1.629000000    -6.900000000    -0.456000000
O     2.346000000    -6.424000000    -1.543000000
C     1.964000000    -5.150000000    -2.142000000
C     2.876000000    -4.436000000    -2.761000000
H     3.928000000    -4.706000000    -2.805000000
C     2.553000000    -3.154000000    -3.296000000
O     3.614000000    -2.300000000    -3.617000000
C     3.589000000    -1.495000000    -4.736000000
C     3.884000000    -0.162000000    -4.515000000
H     4.175000000     0.154000000    -3.517000000
C     3.246000000    -1.974000000    -5.987000000
H     3.181000000    -3.045000000    -6.162000000
C     3.202000000    -1.112000000    -7.059000000
H     2.781000000    -1.398000000    -8.019000000
C     3.464000000     0.224000000    -6.810000000
H     3.194000000     1.012000000    -7.509000000
C     3.748000000     0.731000000    -5.532000000
O     3.903000000     2.054000000    -5.360000000
C     2.979000000     2.829000000    -4.630000000
C     3.481000000     4.033000000    -4.113000000
H     4.488000000     4.360000000    -4.359000000
C     2.696000000     4.824000000    -3.358000000
O     3.228000000     6.039000000    -2.872000000
C     2.983000000     6.522000000    -1.688000000
C     2.394000000     7.804000000    -1.552000000
H     1.981000000     8.283000000    -2.436000000
C     2.334000000     8.486000000    -0.271000000
H     1.863000000     9.457000000    -0.142000000
C     2.725000000     7.767000000     0.875000000
H     2.631000000     8.190000000     1.872000000
C     3.177000000     6.459000000     0.723000000
C     3.298000000     5.854000000    -0.547000000
H     3.759000000     4.869000000    -0.569000000
C     2.476000000    -2.480000000     0.602000000
H     2.861000000    -3.397000000     1.039000000
C     1.093000000    -2.251000000     0.650000000
H     0.410000000    -2.970000000     1.094000000
C     0.554000000    -1.139000000     0.146000000
H    -0.486000000    -0.984000000     0.284000000
C     1.305000000    -0.230000000    -0.469000000
H     0.864000000     0.660000000    -0.912000000
C     2.623000000    -0.374000000    -0.548000000
H     3.295000000     0.288000000    -1.089000000
C     3.300000000    -1.475000000     0.045000000
C     4.812000000    -1.643000000     0.028000000
O     5.475000000    -0.761000000    -0.498000000
O     5.375000000    -2.681000000     0.435000000
O     6.506000000    -5.893000000     1.960000000
H     6.676000000    -5.553000000     1.081000000
H     6.589000000    -6.842000000     1.870000000
O    10.426000000    -4.403000000     2.353000000
H    10.094000000    -5.220000000     1.981000000
H     9.808000000    -3.735000000     2.055000000
O     6.477000000    -4.474000000    -3.472000000
H     6.772000000    -5.294000000    -3.870000000
H     5.928000000    -4.066000000    -4.141000000
O     9.185000000     0.577000000    -1.524000000
H     9.032000000     1.040000000    -0.700000000
H     8.524000000    -0.116000000    -1.535000000
O     5.956000000     1.336000000    -2.156000000
H     5.443000000     2.051000000    -1.779000000
H     5.909000000     0.638000000    -1.503000000
O     5.731000000    -5.770000000     4.823000000
H     5.849000000    -4.873000000     5.136000000
H     5.995000000    -5.739000000     3.904000000
O     5.273000000    -3.180000000     2.972000000
H     5.395000000    -2.988000000     2.043000000
H     4.655000000    -3.911000000     2.987000000
O     7.502000000    -1.633000000    -2.185000000
H     6.690000000    -1.509000000    -1.694000000
H     7.231000000    -2.079000000    -2.987000000
O     9.913000000     0.984000000     2.441000000
H     9.112000000     0.614000000     2.071000000
H    10.083000000     1.764000000     1.913000000
O     7.141000000     1.459000000     5.531000000
H     6.738000000     0.947000000     4.830000000
H     7.165000000     0.863000000     6.279000000
O     7.225000000     0.275000000     1.705000000
H     6.615000000    -0.072000000     1.054000000
H     6.667000000     0.719000000     2.343000000
O     5.546000000     1.552000000     3.132000000
H     4.644000000     1.662000000     3.434000000
H     5.908000000     2.438000000     3.133000000
O     7.274000000     0.803000000    -4.497000000
H     8.098000000     0.636000000    -4.040000000
H     6.656000000     1.031000000    -3.802000000
O     5.914000000     4.215000000    -1.960000000
H     6.263000000     5.025000000    -2.332000000
H     6.370000000     3.519000000    -2.432000000
O     8.598000000    -6.025000000    -0.092000000
H     8.262000000    -6.895000000    -0.308000000
H     7.912000000    -5.424000000    -0.383000000
O     8.030000000    -2.611000000     1.245000000
H     7.146000000    -2.613000000     0.879000000
H     8.124000000    -1.745000000     1.642000000
O     6.593000000    -4.656000000    -0.887000000
H     6.697000000    -4.553000000    -1.833000000
H     6.118000000    -3.872000000    -0.611000000
O     7.326000000    -1.740000000     4.393000000
H     6.608000000    -1.970000000     3.804000000
H     6.894000000    -1.466000000     5.203000000
O     9.839000000    -2.639000000    -0.787000000
H     9.401000000    -3.048000000    -0.041000000
H     9.127000000    -2.274000000    -1.312000000
