215
-1447.69649
C     1.512000000    -2.242000000     4.741000000
H     0.759000000    -3.022000000     4.669000000
C     1.172000000    -0.928000000     4.454000000
C     2.069000000     0.107000000     4.672000000
H     1.849000000     1.146000000     4.445000000
C    -0.272000000    -0.558000000     4.109000000
O    -1.172000000    -1.581000000     4.458000000
H    -0.334000000    -0.464000000     3.015000000
O    -0.705000000     0.698000000     4.695000000
C    -1.544000000     1.527000000     4.005000000
C    -0.953000000     2.593000000     3.389000000
H     0.117000000     2.727000000     3.527000000
C    -1.617000000     3.449000000     2.557000000
O    -0.992000000     4.555000000     1.970000000
C    -2.995000000     3.162000000     2.218000000
C    -3.817000000     4.081000000     1.236000000
H    -4.887000000     3.905000000     1.367000000
C    -3.443000000     3.660000000    -0.216000000
C    -4.163000000     2.625000000    -0.807000000
H    -5.050000000     2.117000000    -0.438000000
H    -3.520000000     5.126000000     1.349000000
C    -3.574000000     2.117000000     2.893000000
H    -4.646000000     2.041000000     2.740000000
C    -2.885000000     1.264000000     3.734000000
C    -3.645000000    -0.014000000     4.287000000
H    -4.718000000     0.144000000     4.164000000
H    -3.434000000    -0.165000000     5.348000000
C    -3.293000000    -1.198000000     3.328000000
C    -4.178000000    -1.681000000     2.351000000
H    -5.117000000    -1.166000000     2.172000000
C    -2.092000000    -1.906000000     3.478000000
C    -1.769000000    -3.012000000     2.674000000
H    -0.803000000    -3.504000000     2.770000000
C    -2.621000000    -3.351000000     1.615000000
O    -2.209000000    -4.343000000     0.753000000
C    -1.727000000    -3.935000000    -0.458000000
C    -0.438000000    -4.651000000    -0.742000000
C    -0.047000000    -4.809000000    -2.046000000
H    -0.690000000    -4.684000000    -2.914000000
C     0.340000000    -5.193000000     0.326000000
H    -0.081000000    -5.170000000     1.328000000
O    -2.781000000    -4.152000000    -1.381000000
H    -1.480000000    -2.866000000    -0.376000000
C    -3.882000000    -2.669000000     1.433000000
C    -4.748000000    -2.976000000     0.277000000
H    -5.710000000    -2.562000000     0.584000000
H    -4.849000000    -4.046000000     0.083000000
C    -4.245000000    -2.356000000    -1.065000000
C    -4.751000000    -1.074000000    -1.414000000
H    -5.529000000    -0.589000000    -0.831000000
C    -3.279000000    -2.989000000    -1.789000000
C    -2.720000000    -2.297000000    -2.903000000
H    -2.013000000    -2.799000000    -3.557000000
C    -3.023000000    -0.988000000    -3.130000000
O    -2.270000000    -0.315000000    -4.017000000
C    -1.366000000     0.713000000    -3.600000000
C    -0.139000000     0.744000000    -4.483000000
C     0.326000000    -0.465000000    -5.022000000
H    -0.252000000    -1.381000000    -4.943000000
C     0.806000000     1.855000000    -4.462000000
H     0.515000000     2.766000000    -3.946000000
O    -2.043000000     2.020000000    -3.792000000
H    -1.114000000     0.550000000    -2.542000000
C    -4.062000000    -0.363000000    -2.382000000
C    -4.527000000     1.014000000    -2.734000000
H    -5.603000000     1.115000000    -2.581000000
H    -4.401000000     1.087000000    -3.816000000
C    -3.758000000     2.173000000    -2.089000000
C    -2.599000000     2.673000000    -2.712000000
C    -1.897000000     3.671000000    -2.130000000
H    -1.092000000     4.108000000    -2.715000000
C    -2.328000000     4.219000000    -0.879000000
O    -1.416000000     5.108000000    -0.285000000
C    -0.526000000     4.461000000     0.593000000
H    -0.401000000     3.397000000     0.347000000
C     0.944000000     4.936000000     0.486000000
C     1.877000000     4.397000000     1.378000000
H     1.630000000     3.872000000     2.298000000
C     1.383000000     5.728000000    -0.560000000
H     0.655000000     6.248000000    -1.179000000
C     2.745000000     5.955000000    -0.758000000
O     3.109000000     6.485000000    -2.007000000
C     3.734000000     5.523000000     0.129000000
H     4.748000000     5.864000000    -0.060000000
C     3.265000000     4.762000000     1.224000000
O     4.291000000     4.225000000     1.977000000
C     4.096000000     3.753000000     3.327000000
C     4.312000000     2.426000000     3.597000000
H     4.532000000     1.732000000     2.790000000
C     3.718000000     4.647000000     4.255000000
H     3.801000000     5.687000000     3.947000000
C     3.624000000     4.194000000     5.572000000
H     3.611000000     4.972000000     6.331000000
C     3.798000000     2.906000000     5.910000000
H     3.800000000     2.667000000     6.971000000
C     4.163000000     1.961000000     4.920000000
O     4.323000000     0.684000000     5.250000000
C     3.395000000    -0.285000000     5.069000000
C     3.804000000    -1.543000000     5.206000000
H     4.825000000    -1.811000000     5.471000000
C     2.887000000    -2.580000000     5.021000000
O     3.291000000    -3.899000000     5.210000000
C     2.736000000    -4.947000000     4.561000000
C     2.804000000    -4.968000000     3.146000000
H     3.276000000    -4.153000000     2.604000000
C     1.983000000    -5.916000000     5.219000000
H     1.892000000    -5.853000000     6.300000000
C     1.404000000    -6.970000000     4.519000000
H     0.911000000    -7.791000000     5.033000000
C     1.568000000    -6.985000000     3.148000000
H     1.006000000    -7.720000000     2.577000000
C     2.267000000    -6.025000000     2.446000000
O     2.405000000    -6.238000000     1.049000000
C     1.575000000    -5.870000000     0.083000000
C     2.023000000    -5.961000000    -1.239000000
H     2.962000000    -6.466000000    -1.454000000
C     1.203000000    -5.417000000    -2.283000000
O     1.693000000    -5.622000000    -3.572000000
C     1.234000000    -4.842000000    -4.620000000
C     1.725000000    -3.563000000    -4.836000000
H     2.411000000    -3.145000000    -4.104000000
C     0.309000000    -5.345000000    -5.496000000
H    -0.148000000    -6.279000000    -5.180000000
C    -0.072000000    -4.758000000    -6.646000000
H    -0.626000000    -5.325000000    -7.389000000
C     0.465000000    -3.454000000    -6.926000000
H     0.206000000    -2.909000000    -7.830000000
C     1.353000000    -2.856000000    -5.950000000
O     2.084000000    -1.717000000    -6.073000000
C     1.581000000    -0.545000000    -5.561000000
C     2.316000000     0.588000000    -5.810000000
H     3.193000000     0.557000000    -6.451000000
C     1.948000000     1.765000000    -5.185000000
O     2.724000000     2.891000000    -5.348000000
C     2.410000000     4.109000000    -4.825000000
C     1.544000000     5.002000000    -5.555000000
H     1.194000000     4.723000000    -6.545000000
C     1.306000000     6.270000000    -5.146000000
H     0.803000000     6.923000000    -5.854000000
C     1.917000000     6.798000000    -4.030000000
H     1.672000000     7.798000000    -3.681000000
C     2.649000000     5.916000000    -3.186000000
C     2.892000000     4.621000000    -3.612000000
H     3.585000000     3.965000000    -3.092000000
C     1.748000000    -0.683000000    -1.799000000
H     1.861000000    -1.440000000    -2.572000000
C     0.499000000    -0.589000000    -1.132000000
H    -0.377000000    -1.146000000    -1.454000000
C     0.310000000     0.435000000    -0.100000000
H    -0.614000000     0.483000000     0.550000000
C     1.312000000     1.434000000     0.033000000
H     1.082000000     2.274000000     0.684000000
C     2.578000000     1.254000000    -0.636000000
H     3.323000000     2.037000000    -0.520000000
C     2.810000000     0.166000000    -1.500000000
C     4.194000000     0.011000000    -2.243000000
O     5.012000000     0.914000000    -2.317000000
O     4.420000000    -1.051000000    -2.718000000
O     5.095000000    -2.823000000    -7.786000000
H     4.472000000    -3.520000000    -7.576000000
H     5.573000000    -2.676000000    -6.970000000
O     8.174000000    -4.506000000    -3.944000000
H     8.126000000    -3.666000000    -3.488000000
H     7.358000000    -4.556000000    -4.442000000
O     6.861000000     0.965000000     0.539000000
H     5.990000000     0.609000000     0.716000000
H     6.879000000     1.092000000    -0.410000000
O     5.372000000    -1.549000000    -5.345000000
H     5.417000000    -1.385000000    -4.403000000
H     4.492000000    -1.902000000    -5.486000000
O     8.376000000    -2.608000000    -0.331000000
H     7.582000000    -2.955000000     0.075000000
H     8.939000000    -3.373000000    -0.450000000
O     4.446000000    -3.149000000    -0.929000000
H     4.156000000    -2.474000000    -1.542000000
H     4.663000000    -3.899000000    -1.483000000
O     8.040000000     2.952000000    -6.411000000
H     7.639000000     2.396000000    -7.080000000
H     8.207000000     2.361000000    -5.677000000
O     6.954000000    -2.071000000    -2.646000000
H     6.008000000    -1.946000000    -2.569000000
H     7.255000000    -2.183000000    -1.744000000
O     2.448000000    -1.551000000     1.051000000
H     1.885000000    -1.077000000     0.439000000
H     2.727000000    -2.328000000     0.567000000
O     4.654000000    -0.185000000     1.573000000
H     3.820000000    -0.599000000     1.351000000
H     4.811000000    -0.437000000     2.483000000
O     6.171000000     5.888000000    -2.583000000
H     6.166000000     6.451000000    -1.809000000
H     6.124000000     4.998000000    -2.233000000
O     6.346000000    -4.218000000     0.910000000
H     5.612000000    -3.864000000     0.407000000
H     6.249000000    -5.168000000     0.838000000
O     7.682000000    -0.934000000    -7.101000000
H     8.377000000    -1.467000000    -6.712000000
H     6.907000000    -1.132000000    -6.578000000
O     7.572000000     3.409000000     1.616000000
H     7.886000000     4.043000000     0.971000000
H     7.402000000     2.615000000     1.108000000
O     9.801000000     0.966000000    -3.999000000
H    10.184000000     0.094000000    -3.902000000
H     8.886000000     0.857000000    -3.742000000
O     5.693000000     3.411000000    -1.410000000
H     4.888000000     3.794000000    -1.062000000
H     5.432000000     2.542000000    -1.715000000
O     6.882000000    -0.385000000     2.991000000
H     7.309000000     0.426000000     3.267000000
H     6.648000000    -0.232000000     2.075000000
O     7.184000000     0.302000000    -3.699000000
H     6.497000000     0.688000000    -3.155000000
H     7.221000000    -0.614000000    -3.424000000
O     5.102000000    -5.176000000    -2.658000000
H     5.036000000    -6.079000000    -2.347000000
H     5.093000000    -5.250000000    -3.612000000
