215
-1416.82005
C     0.228000000    -2.776000000     4.098000000
H    -0.411000000    -3.483000000     3.574000000
C    -0.159000000    -1.471000000     4.282000000
C     0.578000000    -0.604000000     5.068000000
H     0.222000000     0.414000000     5.210000000
C    -1.455000000    -1.060000000     3.602000000
O    -2.381000000    -2.203000000     3.445000000
H    -1.108000000    -0.805000000     2.590000000
O    -2.196000000     0.023000000     4.224000000
C    -2.762000000     0.952000000     3.431000000
C    -2.211000000     2.209000000     3.473000000
H    -1.347000000     2.383000000     4.109000000
C    -2.597000000     3.141000000     2.571000000
O    -1.816000000     4.236000000     2.498000000
C    -3.669000000     2.964000000     1.728000000
C    -4.046000000     3.933000000     0.682000000
H    -5.086000000     3.742000000     0.410000000
C    -3.185000000     3.801000000    -0.598000000
C    -3.709000000     3.127000000    -1.714000000
H    -4.666000000     2.621000000    -1.621000000
H    -4.079000000     4.938000000     1.108000000
C    -4.320000000     1.701000000     1.718000000
H    -5.156000000     1.491000000     1.055000000
C    -3.906000000     0.733000000     2.623000000
C    -4.679000000    -0.589000000     2.618000000
H    -5.745000000    -0.499000000     2.395000000
H    -4.680000000    -1.013000000     3.624000000
C    -4.031000000    -1.523000000     1.722000000
C    -4.401000000    -1.565000000     0.338000000
H    -5.137000000    -0.856000000    -0.031000000
C    -3.034000000    -2.447000000     2.216000000
C    -2.449000000    -3.282000000     1.290000000
H    -1.662000000    -3.933000000     1.661000000
C    -2.876000000    -3.389000000    -0.017000000
O    -2.144000000    -4.126000000    -0.973000000
C    -1.214000000    -3.517000000    -1.863000000
C     0.009000000    -4.361000000    -1.880000000
C     0.914000000    -4.345000000    -2.899000000
H     0.725000000    -3.652000000    -3.714000000
C     0.279000000    -5.135000000    -0.732000000
H    -0.377000000    -5.036000000     0.129000000
O    -1.937000000    -3.464000000    -3.142000000
H    -0.966000000    -2.487000000    -1.569000000
C    -3.829000000    -2.491000000    -0.517000000
C    -4.419000000    -2.765000000    -1.915000000
H    -5.483000000    -2.519000000    -1.881000000
H    -4.312000000    -3.806000000    -2.224000000
C    -3.603000000    -1.813000000    -2.763000000
C    -3.975000000    -0.480000000    -2.914000000
H    -4.834000000    -0.056000000    -2.400000000
C    -2.452000000    -2.222000000    -3.420000000
C    -1.732000000    -1.366000000    -4.219000000
H    -0.787000000    -1.710000000    -4.630000000
C    -2.076000000    -0.058000000    -4.352000000
O    -1.149000000     0.759000000    -4.896000000
C    -0.331000000     1.582000000    -4.051000000
C     1.172000000     1.469000000    -4.326000000
C     1.729000000     0.395000000    -5.017000000
H     1.110000000    -0.449000000    -5.308000000
C     2.070000000     2.450000000    -3.823000000
H     1.648000000     3.177000000    -3.134000000
O    -0.825000000     2.877000000    -4.000000000
H    -0.466000000     1.182000000    -3.035000000
C    -3.214000000     0.405000000    -3.668000000
C    -3.623000000     1.839000000    -3.844000000
H    -4.708000000     1.858000000    -3.725000000
H    -3.512000000     2.302000000    -4.827000000
C    -2.946000000     2.812000000    -2.884000000
C    -1.572000000     3.213000000    -2.959000000
C    -1.080000000     3.839000000    -1.850000000
H    -0.037000000     4.141000000    -1.892000000
C    -1.846000000     4.197000000    -0.737000000
O    -1.165000000     4.897000000     0.287000000
C    -0.776000000     4.155000000     1.452000000
H    -0.761000000     3.110000000     1.108000000
C     0.648000000     4.452000000     2.009000000
C     0.973000000     4.404000000     3.400000000
H     0.151000000     4.207000000     4.084000000
C     1.634000000     4.812000000     1.078000000
H     1.409000000     4.958000000     0.025000000
C     2.901000000     5.207000000     1.582000000
O     3.898000000     5.646000000     0.674000000
C     3.183000000     5.127000000     2.934000000
H     4.187000000     5.360000000     3.280000000
C     2.254000000     4.644000000     3.839000000
O     2.470000000     4.535000000     5.194000000
C     2.225000000     3.420000000     6.012000000
C     2.563000000     2.163000000     5.631000000
H     3.070000000     2.099000000     4.671000000
C     1.633000000     3.644000000     7.282000000
H     1.470000000     4.685000000     7.550000000
C     1.544000000     2.604000000     8.151000000
H     1.005000000     2.744000000     9.085000000
C     1.929000000     1.312000000     7.774000000
H     1.693000000     0.492000000     8.447000000
C     2.458000000     1.129000000     6.528000000
O     2.758000000    -0.167000000     6.136000000
C     1.869000000    -0.969000000     5.444000000
C     2.262000000    -2.311000000     5.234000000
H     3.234000000    -2.572000000     5.644000000
C     1.433000000    -3.249000000     4.601000000
O     1.730000000    -4.615000000     4.576000000
C     1.144000000    -5.463000000     3.644000000
C     1.657000000    -5.612000000     2.390000000
H     2.327000000    -4.867000000     1.971000000
C     0.305000000    -6.423000000     4.184000000
H     0.047000000    -6.382000000     5.239000000
C    -0.078000000    -7.501000000     3.435000000
H    -0.723000000    -8.193000000     3.971000000
C     0.382000000    -7.612000000     2.136000000
H     0.041000000    -8.470000000     1.563000000
C     1.132000000    -6.588000000     1.579000000
O     1.731000000    -6.698000000     0.347000000
C     1.508000000    -5.866000000    -0.717000000
C     2.393000000    -5.862000000    -1.806000000
H     3.268000000    -6.491000000    -1.665000000
C     2.098000000    -5.094000000    -2.907000000
O     3.026000000    -4.914000000    -3.951000000
C     2.872000000    -4.105000000    -5.022000000
C     3.162000000    -2.766000000    -4.898000000
H     3.529000000    -2.360000000    -3.959000000
C     2.308000000    -4.575000000    -6.189000000
H     1.969000000    -5.605000000    -6.267000000
C     2.154000000    -3.814000000    -7.323000000
H     1.731000000    -4.291000000    -8.203000000
C     2.650000000    -2.487000000    -7.268000000
H     2.587000000    -1.863000000    -8.156000000
C     3.091000000    -1.971000000    -6.051000000
O     3.568000000    -0.709000000    -6.075000000
C     3.082000000     0.383000000    -5.390000000
C     3.918000000     1.389000000    -4.957000000
H     4.967000000     1.522000000    -5.213000000
C     3.432000000     2.387000000    -4.069000000
O     4.271000000     3.327000000    -3.520000000
C     3.962000000     4.471000000    -2.808000000
C     3.386000000     5.568000000    -3.474000000
H     3.155000000     5.500000000    -4.534000000
C     3.013000000     6.686000000    -2.760000000
H     2.559000000     7.547000000    -3.243000000
C     3.205000000     6.809000000    -1.399000000
H     2.842000000     7.612000000    -0.763000000
C     3.728000000     5.677000000    -0.710000000
C     4.092000000     4.567000000    -1.462000000
H     4.420000000     3.652000000    -0.977000000
C     1.952000000    -1.820000000     0.245000000
H     2.195000000    -2.831000000     0.560000000
C     0.668000000    -1.315000000     0.504000000
H    -0.032000000    -2.037000000     0.916000000
C     0.314000000    -0.030000000     0.050000000
H    -0.700000000     0.322000000     0.309000000
C     1.284000000     0.666000000    -0.722000000
H     0.924000000     1.664000000    -0.957000000
C     2.549000000     0.105000000    -1.037000000
H     3.255000000     0.641000000    -1.666000000
C     2.923000000    -1.163000000    -0.543000000
C     4.246000000    -1.745000000    -0.866000000
O     5.096000000    -1.066000000    -1.450000000
O     4.676000000    -2.539000000    -0.123000000
O     6.590000000    -0.571000000    -6.308000000
H     6.233000000    -1.437000000    -6.505000000
H     6.345000000    -0.413000000    -5.397000000
O     7.778000000    -0.761000000     2.827000000
H     8.407000000    -1.025000000     3.499000000
H     7.384000000    -1.582000000     2.532000000
O     5.426000000    -7.278000000    -3.238000000
H     5.426000000    -6.359000000    -2.971000000
H     5.973000000    -7.299000000    -4.023000000
O    10.215000000    -3.056000000    -1.505000000
H    10.179000000    -3.112000000    -2.460000000
H     9.432000000    -2.562000000    -1.265000000
O     6.169000000    -2.460000000     4.995000000
H     5.859000000    -3.342000000     5.202000000
H     6.424000000    -2.505000000     4.074000000
O     5.964000000    -0.441000000    -3.682000000
H     5.562000000    -0.914000000    -2.954000000
H     6.450000000     0.271000000    -3.266000000
O     5.969000000    -3.226000000     2.389000000
H     5.654000000    -2.922000000     1.538000000
H     5.304000000    -3.850000000     2.681000000
O     7.133000000    -3.020000000    -3.728000000
H     6.765000000    -2.137000000    -3.778000000
H     6.601000000    -3.464000000    -3.068000000
O     5.710000000    -4.597000000    -1.805000000
H     6.371000000    -4.762000000    -1.132000000
H     5.153000000    -3.915000000    -1.430000000
O     7.506000000    -2.523000000    -0.656000000
H     6.655000000    -2.252000000    -1.003000000
H     7.297000000    -3.202000000    -0.014000000
O     3.296000000     0.215000000     2.316000000
H     3.536000000    -0.704000000     2.435000000
H     2.586000000     0.196000000     1.675000000
O     5.096000000     2.242000000     1.711000000
H     4.313000000     1.789000000     2.024000000
H     5.348000000     1.766000000     0.920000000
O     7.963000000    -3.833000000    -6.154000000
H     7.256000000    -3.475000000    -6.692000000
H     7.707000000    -3.627000000    -5.255000000
O     7.580000000     3.863000000     1.032000000
H     7.259000000     3.036000000     0.673000000
H     7.000000000     4.044000000     1.772000000
O     8.591000000     0.207000000     0.404000000
H     8.127000000    -0.630000000     0.444000000
H     7.912000000     0.865000000     0.553000000
O     7.552000000     2.040000000    -2.468000000
H     7.900000000     1.938000000    -3.354000000
H     7.839000000     2.912000000    -2.197000000
O     5.856000000     1.285000000    -0.650000000
H     5.670000000     0.380000000    -0.902000000
H     6.358000000     1.639000000    -1.384000000
O     4.998000000    -7.652000000     0.229000000
H     5.058000000    -6.744000000     0.526000000
H     5.848000000    -8.033000000     0.452000000
O     7.527000000    -5.353000000    -0.103000000
H     8.301000000    -5.407000000    -0.664000000
H     7.655000000    -6.041000000     0.550000000
