215
-1452.71323
C     1.362000000    -2.142000000     4.379000000
H     0.691000000    -2.979000000     4.202000000
C     0.839000000    -0.861000000     4.519000000
C     1.719000000     0.191000000     4.823000000
H     1.375000000     1.222000000     4.841000000
C    -0.678000000    -0.574000000     4.142000000
O    -1.560000000    -1.743000000     4.346000000
H    -0.656000000    -0.412000000     3.054000000
O    -1.217000000     0.609000000     4.831000000
C    -1.988000000     1.412000000     4.061000000
C    -1.374000000     2.584000000     3.646000000
H    -0.363000000     2.708000000     4.026000000
C    -1.831000000     3.429000000     2.658000000
O    -1.034000000     4.394000000     2.253000000
C    -3.109000000     3.065000000     2.101000000
C    -3.740000000     3.940000000     1.123000000
H    -4.832000000     3.899000000     1.128000000
C    -3.203000000     3.581000000    -0.267000000
C    -3.935000000     2.691000000    -1.000000000
H    -4.814000000     2.314000000    -0.484000000
H    -3.467000000     4.965000000     1.380000000
C    -3.743000000     1.850000000     2.491000000
H    -4.716000000     1.584000000     2.085000000
C    -3.154000000     1.078000000     3.444000000
C    -3.934000000    -0.217000000     3.915000000
H    -4.985000000     0.068000000     3.988000000
H    -3.632000000    -0.456000000     4.937000000
C    -3.558000000    -1.366000000     3.114000000
C    -4.320000000    -1.688000000     1.993000000
H    -5.192000000    -1.049000000     1.877000000
C    -2.370000000    -2.080000000     3.368000000
C    -2.047000000    -3.116000000     2.519000000
H    -1.165000000    -3.697000000     2.776000000
C    -2.870000000    -3.426000000     1.392000000
O    -2.408000000    -4.390000000     0.536000000
C    -1.801000000    -3.979000000    -0.656000000
C    -0.583000000    -4.853000000    -1.044000000
C    -0.198000000    -5.174000000    -2.374000000
H    -0.797000000    -4.873000000    -3.230000000
C     0.336000000    -5.177000000    -0.001000000
H     0.091000000    -5.086000000     1.054000000
O    -2.708000000    -3.831000000    -1.775000000
H    -1.325000000    -3.016000000    -0.420000000
C    -4.004000000    -2.635000000     1.071000000
C    -4.797000000    -2.629000000    -0.191000000
H    -5.796000000    -2.252000000     0.038000000
H    -4.847000000    -3.705000000    -0.372000000
C    -4.165000000    -1.889000000    -1.347000000
C    -4.570000000    -0.594000000    -1.617000000
H    -5.311000000    -0.028000000    -1.057000000
C    -3.238000000    -2.625000000    -2.118000000
C    -2.713000000    -1.937000000    -3.206000000
H    -2.014000000    -2.468000000    -3.846000000
C    -3.127000000    -0.640000000    -3.574000000
O    -2.394000000     0.023000000    -4.551000000
C    -1.460000000     0.961000000    -4.029000000
C    -0.099000000     0.758000000    -4.664000000
C     0.348000000    -0.486000000    -5.169000000
H    -0.400000000    -1.273000000    -5.220000000
C     0.823000000     1.847000000    -4.636000000
H     0.459000000     2.763000000    -4.178000000
O    -1.965000000     2.314000000    -4.041000000
H    -1.284000000     0.694000000    -2.976000000
C    -4.041000000     0.030000000    -2.752000000
C    -4.447000000     1.429000000    -3.133000000
H    -5.502000000     1.643000000    -2.945000000
H    -4.324000000     1.595000000    -4.205000000
C    -3.618000000     2.407000000    -2.371000000
C    -2.424000000     2.858000000    -2.841000000
C    -1.687000000     3.841000000    -2.147000000
H    -0.772000000     4.171000000    -2.633000000
C    -2.073000000     4.152000000    -0.867000000
O    -1.141000000     4.848000000    -0.052000000
C    -0.333000000     4.181000000     0.951000000
H    -0.469000000     3.123000000     0.681000000
C     1.146000000     4.621000000     0.940000000
C     1.875000000     4.703000000     2.157000000
H     1.326000000     4.656000000     3.094000000
C     1.805000000     4.812000000    -0.236000000
H     1.214000000     4.813000000    -1.148000000
C     3.167000000     5.205000000    -0.225000000
O     3.904000000     5.442000000    -1.373000000
C     3.842000000     5.256000000     1.001000000
H     4.861000000     5.631000000     1.051000000
C     3.233000000     4.982000000     2.188000000
O     3.959000000     5.252000000     3.358000000
C     3.869000000     4.465000000     4.468000000
C     3.922000000     3.096000000     4.356000000
H     4.143000000     2.682000000     3.376000000
C     3.674000000     5.022000000     5.756000000
H     3.621000000     6.104000000     5.844000000
C     3.542000000     4.190000000     6.846000000
H     3.384000000     4.661000000     7.813000000
C     3.392000000     2.813000000     6.663000000
H     3.270000000     2.216000000     7.563000000
C     3.638000000     2.236000000     5.444000000
O     3.986000000     0.908000000     5.432000000
C     3.113000000    -0.085000000     5.059000000
C     3.516000000    -1.408000000     5.044000000
H     4.555000000    -1.611000000     5.291000000
C     2.661000000    -2.414000000     4.692000000
O     3.125000000    -3.752000000     4.769000000
C     2.517000000    -4.729000000     4.086000000
C     2.831000000    -4.855000000     2.689000000
H     3.550000000    -4.270000000     2.122000000
C     1.763000000    -5.701000000     4.719000000
H     1.475000000    -5.560000000     5.757000000
C     1.176000000    -6.685000000     3.929000000
H     0.525000000    -7.484000000     4.273000000
C     1.388000000    -6.776000000     2.599000000
H     0.925000000    -7.519000000     1.954000000
C     2.221000000    -5.881000000     1.994000000
O     2.586000000    -5.889000000     0.664000000
C     1.663000000    -5.651000000    -0.316000000
C     1.930000000    -6.039000000    -1.639000000
H     2.880000000    -6.521000000    -1.858000000
C     1.001000000    -5.867000000    -2.620000000
O     1.465000000    -6.090000000    -3.925000000
C     1.161000000    -5.237000000    -4.926000000
C     1.680000000    -3.964000000    -4.890000000
H     2.420000000    -3.735000000    -4.127000000
C     0.293000000    -5.629000000    -5.941000000
H    -0.119000000    -6.634000000    -5.897000000
C    -0.093000000    -4.782000000    -6.923000000
H    -0.835000000    -4.991000000    -7.689000000
C     0.509000000    -3.484000000    -6.957000000
H     0.356000000    -2.743000000    -7.737000000
C     1.433000000    -3.116000000    -5.961000000
O     2.123000000    -1.885000000    -6.074000000
C     1.638000000    -0.641000000    -5.623000000
C     2.551000000     0.431000000    -5.573000000
H     3.594000000     0.228000000    -5.801000000
C     2.160000000     1.689000000    -5.121000000
O     3.167000000     2.626000000    -5.105000000
C     3.132000000     3.909000000    -4.622000000
C     2.596000000     4.974000000    -5.320000000
H     2.120000000     4.838000000    -6.288000000
C     2.453000000     6.162000000    -4.634000000
H     1.997000000     6.971000000    -5.199000000
C     2.900000000     6.406000000    -3.358000000
H     2.835000000     7.408000000    -2.942000000
C     3.383000000     5.240000000    -2.650000000
C     3.422000000     4.015000000    -3.284000000
H     3.764000000     3.094000000    -2.820000000
C     1.343000000    -0.965000000    -1.915000000
H     1.534000000    -1.620000000    -2.761000000
C     0.116000000    -0.807000000    -1.371000000
H    -0.743000000    -1.256000000    -1.864000000
C    -0.069000000    -0.088000000    -0.180000000
H    -1.017000000     0.036000000     0.262000000
C     1.061000000     0.506000000     0.419000000
H     0.844000000     1.027000000     1.347000000
C     2.341000000     0.422000000    -0.149000000
H     3.192000000     0.907000000     0.323000000
C     2.468000000    -0.290000000    -1.350000000
C     3.895000000    -0.499000000    -1.810000000
O     4.772000000    -0.729000000    -0.975000000
O     4.197000000    -0.731000000    -2.963000000
O     5.013000000    -1.682000000    -7.091000000
H     4.977000000    -2.452000000    -7.658000000
H     4.189000000    -1.224000000    -7.254000000
O     9.365000000    -2.231000000    -4.203000000
H     8.459000000    -2.014000000    -4.425000000
H     9.847000000    -2.108000000    -5.021000000
O     5.622000000    -5.501000000    -4.547000000
H     5.593000000    -4.545000000    -4.509000000
H     5.746000000    -5.701000000    -5.475000000
O     8.642000000     1.442000000    -0.119000000
H     8.493000000     2.158000000    -0.737000000
H     8.979000000     0.726000000    -0.659000000
O     5.152000000    -2.804000000    -4.425000000
H     4.988000000    -2.617000000    -5.350000000
H     4.702000000    -2.102000000    -3.955000000
O     7.333000000    -2.919000000     1.285000000
H     8.029000000    -2.825000000     0.636000000
H     6.573000000    -3.211000000     0.781000000
O     5.705000000    -5.536000000     2.169000000
H     5.371000000    -4.640000000     2.223000000
H     6.008000000    -5.624000000     1.266000000
O     4.949000000    -3.293000000     0.076000000
H     4.802000000    -2.533000000    -0.487000000
H     4.751000000    -4.046000000    -0.480000000
O     6.947000000    -1.290000000    -2.235000000
H     6.185000000    -1.204000000    -1.664000000
H     6.586000000    -1.268000000    -3.122000000
O     5.170000000    -1.146000000     1.790000000
H     5.932000000    -1.634000000     1.478000000
H     4.477000000    -1.361000000     1.165000000
O     6.177000000     0.745000000     3.419000000
H     6.009000000    -0.004000000     2.846000000
H     5.511000000     0.677000000     4.103000000
O     7.111000000     3.272000000    -2.305000000
H     6.645000000     2.900000000    -1.557000000
H     6.754000000     2.810000000    -3.064000000
O     7.172000000     3.146000000    -5.839000000
H     7.943000000     2.585000000    -5.756000000
H     6.446000000     2.603000000    -5.533000000
O     9.473000000     0.361000000    -2.537000000
H     9.819000000    -0.531000000    -2.538000000
H     8.549000000     0.259000000    -2.307000000
O     7.242000000    -0.744000000    -5.254000000
H     6.903000000    -0.930000000    -6.130000000
H     8.003000000    -0.185000000    -5.406000000
O     8.338000000    -3.849000000    -1.450000000
H     7.618000000    -4.269000000    -1.922000000
H     8.433000000    -2.994000000    -1.872000000
O     5.734000000     1.631000000    -0.385000000
H     5.428000000     0.820000000    -0.791000000
H     6.416000000     1.350000000     0.226000000
O     5.793000000     1.300000000    -4.146000000
H     4.940000000     1.022000000    -3.812000000
H     6.082000000     0.573000000    -4.698000000
O     5.192000000    -5.742000000    -1.721000000
H     5.095000000    -6.686000000    -1.591000000
H     5.230000000    -5.634000000    -2.671000000
