215
-1467.31922
C    -0.215000000    -3.021000000     4.521000000
H    -0.778000000    -3.760000000     3.957000000
C    -0.588000000    -1.664000000     4.355000000
C     0.111000000    -0.677000000     5.034000000
H    -0.087000000     0.374000000     4.839000000
C    -1.861000000    -1.280000000     3.563000000
O    -2.776000000    -2.343000000     3.488000000
H    -1.492000000    -0.956000000     2.579000000
O    -2.469000000    -0.131000000     4.090000000
C    -2.893000000     0.817000000     3.194000000
C    -2.146000000     1.982000000     3.131000000
H    -1.246000000     2.079000000     3.732000000
C    -2.549000000     3.057000000     2.245000000
O    -1.731000000     4.153000000     2.154000000
C    -3.616000000     2.889000000     1.398000000
C    -4.095000000     3.939000000     0.357000000
H    -5.155000000     3.771000000     0.153000000
C    -3.240000000     3.811000000    -0.965000000
C    -3.719000000     2.989000000    -1.973000000
H    -4.641000000     2.447000000    -1.780000000
H    -4.082000000     4.926000000     0.825000000
C    -4.321000000     1.710000000     1.523000000
H    -5.188000000     1.511000000     0.900000000
C    -3.995000000     0.707000000     2.410000000
C    -4.873000000    -0.545000000     2.449000000
H    -5.799000000    -0.287000000     1.931000000
H    -5.123000000    -0.713000000     3.498000000
C    -4.313000000    -1.735000000     1.707000000
C    -4.741000000    -1.850000000     0.392000000
H    -5.468000000    -1.193000000    -0.078000000
C    -3.355000000    -2.568000000     2.257000000
C    -2.783000000    -3.540000000     1.436000000
H    -1.904000000    -4.007000000     1.875000000
C    -3.238000000    -3.773000000     0.118000000
O    -2.449000000    -4.514000000    -0.710000000
C    -1.278000000    -3.846000000    -1.296000000
C     0.058000000    -4.599000000    -1.080000000
C     1.038000000    -4.448000000    -2.050000000
H     0.925000000    -3.673000000    -2.804000000
C     0.340000000    -5.419000000    -0.006000000
H    -0.301000000    -5.546000000     0.862000000
O    -1.596000000    -3.613000000    -2.611000000
H    -1.279000000    -2.848000000    -0.832000000
C    -4.142000000    -2.839000000    -0.408000000
C    -4.441000000    -2.796000000    -1.918000000
H    -5.463000000    -2.459000000    -2.103000000
H    -4.361000000    -3.823000000    -2.279000000
C    -3.394000000    -1.913000000    -2.599000000
C    -3.780000000    -0.561000000    -2.865000000
H    -4.768000000    -0.187000000    -2.607000000
C    -2.082000000    -2.365000000    -2.988000000
C    -1.317000000    -1.460000000    -3.727000000
H    -0.300000000    -1.781000000    -3.937000000
C    -1.764000000    -0.203000000    -4.092000000
O    -0.847000000     0.600000000    -4.794000000
C    -0.185000000     1.520000000    -3.944000000
C     1.281000000     1.565000000    -4.218000000
C     2.009000000     0.318000000    -4.433000000
H     1.419000000    -0.593000000    -4.486000000
C     2.054000000     2.738000000    -4.187000000
H     1.531000000     3.644000000    -3.890000000
O    -0.783000000     2.788000000    -4.154000000
H    -0.298000000     1.310000000    -2.870000000
C    -3.012000000     0.268000000    -3.667000000
C    -3.432000000     1.675000000    -4.004000000
H    -4.523000000     1.706000000    -4.003000000
H    -3.186000000     1.983000000    -5.022000000
C    -2.959000000     2.714000000    -3.125000000
C    -1.663000000     3.264000000    -3.226000000
C    -1.129000000     4.057000000    -2.190000000
H    -0.045000000     4.122000000    -2.159000000
C    -1.935000000     4.366000000    -1.095000000
O    -1.340000000     4.914000000     0.006000000
C    -0.815000000     4.105000000     1.034000000
H    -0.695000000     3.063000000     0.704000000
C     0.615000000     4.580000000     1.353000000
C     1.282000000     3.952000000     2.418000000
H     0.880000000     3.172000000     3.059000000
C     1.298000000     5.462000000     0.542000000
H     0.775000000     5.955000000    -0.273000000
C     2.697000000     5.680000000     0.681000000
O     3.340000000     6.562000000    -0.234000000
C     3.334000000     5.091000000     1.774000000
H     4.389000000     5.257000000     1.974000000
C     2.623000000     4.307000000     2.672000000
O     3.210000000     3.771000000     3.728000000
C     2.625000000     3.310000000     4.880000000
C     2.419000000     1.893000000     4.936000000
H     2.713000000     1.205000000     4.148000000
C     2.294000000     4.117000000     5.960000000
H     2.611000000     5.154000000     5.895000000
C     1.755000000     3.594000000     7.104000000
H     1.569000000     4.162000000     8.012000000
C     1.616000000     2.176000000     7.221000000
H     1.341000000     1.833000000     8.215000000
C     1.970000000     1.317000000     6.133000000
O     2.107000000    -0.025000000     6.382000000
C     1.253000000    -1.013000000     5.842000000
C     1.635000000    -2.314000000     5.931000000
H     2.525000000    -2.570000000     6.500000000
C     0.917000000    -3.315000000     5.316000000
O     1.440000000    -4.572000000     5.485000000
C     1.088000000    -5.616000000     4.626000000
C     1.586000000    -5.707000000     3.302000000
H     2.201000000    -4.911000000     2.890000000
C     0.267000000    -6.649000000     5.027000000
H    -0.085000000    -6.745000000     6.051000000
C    -0.130000000    -7.710000000     4.166000000
H    -0.800000000    -8.454000000     4.588000000
C     0.400000000    -7.759000000     2.874000000
H     0.208000000    -8.602000000     2.216000000
C     1.232000000    -6.700000000     2.378000000
O     1.861000000    -6.872000000     1.185000000
C     1.579000000    -6.079000000     0.068000000
C     2.444000000    -6.047000000    -1.009000000
H     3.298000000    -6.712000000    -1.100000000
C     2.169000000    -5.203000000    -2.081000000
O     3.095000000    -5.121000000    -3.137000000
C     3.111000000    -4.285000000    -4.185000000
C     3.453000000    -2.950000000    -4.050000000
H     3.788000000    -2.552000000    -3.096000000
C     2.697000000    -4.804000000    -5.453000000
H     2.304000000    -5.817000000    -5.458000000
C     2.766000000    -3.953000000    -6.584000000
H     2.423000000    -4.374000000    -7.526000000
C     3.101000000    -2.584000000    -6.424000000
H     3.223000000    -1.900000000    -7.260000000
C     3.467000000    -2.161000000    -5.151000000
O     4.055000000    -0.855000000    -5.012000000
C     3.406000000     0.292000000    -4.631000000
C     4.102000000     1.463000000    -4.398000000
H     5.189000000     1.449000000    -4.407000000
C     3.438000000     2.665000000    -4.190000000
O     4.090000000     3.813000000    -4.097000000
C     3.660000000     5.003000000    -3.534000000
C     3.286000000     6.069000000    -4.337000000
H     3.214000000     5.976000000    -5.418000000
C     3.001000000     7.288000000    -3.794000000
H     2.780000000     8.069000000    -4.517000000
C     3.067000000     7.509000000    -2.452000000
H     2.930000000     8.484000000    -1.991000000
C     3.325000000     6.413000000    -1.602000000
C     3.722000000     5.202000000    -2.144000000
H     4.084000000     4.372000000    -1.543000000
C     2.242000000    -1.415000000    -0.095000000
H     2.402000000    -2.466000000     0.129000000
C     1.073000000    -0.809000000     0.428000000
H     0.442000000    -1.425000000     1.063000000
C     0.831000000     0.519000000     0.230000000
H    -0.078000000     1.016000000     0.637000000
C     1.656000000     1.323000000    -0.573000000
H     1.404000000     2.356000000    -0.798000000
C     2.885000000     0.767000000    -1.012000000
H     3.488000000     1.443000000    -1.614000000
C     3.213000000    -0.575000000    -0.722000000
C     4.583000000    -1.140000000    -0.970000000
O     5.511000000    -0.393000000    -1.280000000
O     4.957000000    -2.153000000    -0.386000000
O     7.019000000     2.389000000     2.032000000
H     6.876000000     1.472000000     1.796000000
H     6.947000000     2.404000000     2.987000000
O     6.679000000    -1.067000000    -6.777000000
H     6.579000000    -1.829000000    -7.348000000
H     6.048000000    -1.210000000    -6.072000000
O     9.932000000    -0.611000000     2.117000000
H     9.372000000    -0.137000000     1.502000000
H     9.398000000    -1.350000000     2.406000000
O     8.324000000    -5.198000000    -1.946000000
H     7.389000000    -5.108000000    -2.134000000
H     8.694000000    -4.342000000    -2.158000000
O     9.427000000    -2.718000000    -2.444000000
H     9.023000000    -2.343000000    -1.661000000
H     9.014000000    -2.254000000    -3.172000000
O     6.302000000    -2.906000000     3.957000000
H     6.297000000    -3.628000000     4.585000000
H     5.747000000    -3.209000000     3.238000000
O     7.313000000    -0.686000000    -3.229000000
H     6.678000000    -0.724000000    -2.514000000
H     7.411000000     0.249000000    -3.412000000
O     5.749000000    -5.887000000     1.776000000
H     5.877000000    -6.532000000     1.081000000
H     6.355000000    -6.156000000     2.466000000
O     4.317000000    -3.680000000     1.628000000
H     4.594000000    -3.205000000     0.844000000
H     4.877000000    -4.456000000     1.648000000
O     6.993000000    -3.219000000    -4.630000000
H     7.080000000    -2.277000000    -4.483000000
H     6.525000000    -3.540000000    -3.859000000
O     5.866000000    -4.163000000    -2.337000000
H     5.136000000    -4.782000000    -2.325000000
H     5.538000000    -3.397000000    -1.866000000
O     7.751000000    -2.128000000    -0.330000000
H     6.831000000    -1.874000000    -0.397000000
H     7.787000000    -2.700000000     0.437000000
O     3.425000000    -1.506000000     3.146000000
H     3.667000000    -2.431000000     3.182000000
H     3.309000000    -1.325000000     2.213000000
O     5.912000000    -0.276000000     1.479000000
H     5.707000000    -0.604000000     0.604000000
H     5.078000000    -0.305000000     1.948000000
O     6.758000000     4.443000000    -0.247000000
H     6.744000000     3.872000000     0.521000000
H     6.663000000     3.848000000    -0.990000000
O     8.548000000     0.580000000    -0.209000000
H     8.034000000    -0.221000000    -0.105000000
H     7.921000000     1.226000000    -0.536000000
O     7.509000000     2.083000000    -4.387000000
H     8.434000000     2.329000000    -4.383000000
H     7.120000000     2.627000000    -5.072000000
O     6.741000000     2.233000000    -1.890000000
H     6.372000000     1.364000000    -1.730000000
H     6.995000000     2.219000000    -2.813000000
O     8.382000000    -4.564000000     1.063000000
H     8.144000000    -4.883000000     0.192000000
H     8.753000000    -5.329000000     1.504000000
