215
-1432.27759
C     1.118000000    -2.683000000     4.586000000
H     0.316000000    -3.412000000     4.505000000
C     0.783000000    -1.274000000     4.576000000
C     1.877000000    -0.398000000     4.601000000
H     1.736000000     0.678000000     4.529000000
C    -0.652000000    -0.746000000     4.323000000
O    -1.656000000    -1.684000000     4.726000000
H    -0.742000000    -0.712000000     3.227000000
O    -0.996000000     0.587000000     4.899000000
C    -1.692000000     1.482000000     4.243000000
C    -1.016000000     2.521000000     3.763000000
H     0.027000000     2.630000000     4.049000000
C    -1.536000000     3.315000000     2.734000000
O    -0.758000000     4.232000000     2.155000000
C    -2.840000000     3.250000000     2.310000000
C    -3.400000000     4.238000000     1.272000000
H    -4.488000000     4.295000000     1.340000000
C    -3.040000000     3.879000000    -0.094000000
C    -3.999000000     3.087000000    -0.824000000
H    -4.947000000     2.861000000    -0.342000000
H    -3.074000000     5.271000000     1.410000000
C    -3.619000000     2.287000000     3.010000000
H    -4.690000000     2.236000000     2.830000000
C    -3.017000000     1.349000000     3.875000000
C    -3.827000000     0.225000000     4.406000000
H    -4.902000000     0.410000000     4.361000000
H    -3.587000000     0.042000000     5.456000000
C    -3.623000000    -1.025000000     3.508000000
C    -4.340000000    -1.213000000     2.309000000
H    -5.259000000    -0.683000000     2.073000000
C    -2.530000000    -1.919000000     3.754000000
C    -2.165000000    -2.907000000     2.839000000
H    -1.302000000    -3.534000000     3.050000000
C    -2.790000000    -3.016000000     1.601000000
O    -2.316000000    -3.916000000     0.685000000
C    -1.731000000    -3.500000000    -0.492000000
C    -0.521000000    -4.320000000    -0.982000000
C     0.244000000    -4.044000000    -2.095000000
H    -0.013000000    -3.272000000    -2.816000000
C     0.082000000    -5.188000000    -0.007000000
H    -0.294000000    -5.238000000     1.011000000
O    -2.642000000    -3.442000000    -1.540000000
H    -1.146000000    -2.598000000    -0.263000000
C    -3.925000000    -2.200000000     1.385000000
C    -4.800000000    -2.414000000     0.135000000
H    -5.841000000    -2.152000000     0.336000000
H    -4.644000000    -3.477000000    -0.056000000
C    -4.267000000    -1.683000000    -1.125000000
C    -4.788000000    -0.424000000    -1.367000000
H    -5.664000000    -0.103000000    -0.809000000
C    -3.202000000    -2.224000000    -1.900000000
C    -2.738000000    -1.603000000    -3.063000000
H    -1.965000000    -2.003000000    -3.713000000
C    -3.242000000    -0.338000000    -3.280000000
O    -2.606000000     0.358000000    -4.284000000
C    -1.619000000     1.369000000    -3.950000000
C    -0.429000000     1.280000000    -4.892000000
C    -0.218000000     0.082000000    -5.628000000
H    -0.930000000    -0.738000000    -5.662000000
C     0.498000000     2.257000000    -5.102000000
H     0.275000000     3.221000000    -4.653000000
O    -2.184000000     2.635000000    -3.973000000
H    -1.280000000     1.146000000    -2.928000000
C    -4.211000000     0.266000000    -2.461000000
C    -4.701000000     1.705000000    -2.732000000
H    -5.721000000     1.794000000    -2.351000000
H    -4.800000000     1.943000000    -3.793000000
C    -3.712000000     2.644000000    -2.126000000
C    -2.476000000     3.099000000    -2.727000000
C    -1.496000000     3.875000000    -2.045000000
H    -0.523000000     4.051000000    -2.497000000
C    -1.813000000     4.222000000    -0.731000000
O    -0.828000000     4.839000000     0.002000000
C    -0.140000000     3.975000000     0.900000000
H    -0.239000000     2.918000000     0.612000000
C     1.324000000     4.211000000     0.866000000
C     2.080000000     4.202000000     2.015000000
H     1.451000000     4.117000000     2.898000000
C     1.998000000     4.354000000    -0.356000000
H     1.441000000     4.174000000    -1.272000000
C     3.404000000     4.481000000    -0.412000000
O     4.038000000     4.712000000    -1.640000000
C     4.153000000     4.652000000     0.790000000
H     5.201000000     4.938000000     0.777000000
C     3.444000000     4.428000000     2.005000000
O     3.942000000     4.644000000     3.267000000
C     4.084000000     3.685000000     4.208000000
C     3.947000000     2.318000000     3.992000000
H     3.766000000     1.987000000     2.972000000
C     4.039000000     4.189000000     5.501000000
H     4.081000000     5.262000000     5.670000000
C     4.049000000     3.335000000     6.643000000
H     4.021000000     3.724000000     7.657000000
C     4.164000000     1.925000000     6.415000000
H     4.313000000     1.216000000     7.225000000
C     4.046000000     1.490000000     5.100000000
O     4.185000000     0.134000000     4.731000000
C     3.165000000    -0.827000000     4.745000000
C     3.468000000    -2.222000000     4.750000000
H     4.475000000    -2.600000000     4.911000000
C     2.403000000    -3.130000000     4.684000000
O     2.726000000    -4.475000000     4.821000000
C     2.162000000    -5.492000000     4.056000000
C     2.199000000    -5.463000000     2.686000000
H     2.582000000    -4.588000000     2.166000000
C     1.726000000    -6.687000000     4.611000000
H     1.610000000    -6.726000000     5.691000000
C     1.345000000    -7.820000000     3.893000000
H     0.933000000    -8.655000000     4.455000000
C     1.366000000    -7.794000000     2.545000000
H     0.959000000    -8.613000000     1.958000000
C     1.842000000    -6.599000000     1.919000000
O     2.011000000    -6.629000000     0.622000000
C     1.314000000    -5.806000000    -0.280000000
C     1.913000000    -5.656000000    -1.495000000
H     2.851000000    -6.179000000    -1.663000000
C     1.377000000    -4.742000000    -2.402000000
O     1.950000000    -4.634000000    -3.660000000
C     1.218000000    -4.205000000    -4.761000000
C     1.444000000    -2.915000000    -5.309000000
H     1.969000000    -2.123000000    -4.781000000
C     0.331000000    -5.030000000    -5.419000000
H     0.092000000    -6.015000000    -5.027000000
C    -0.287000000    -4.615000000    -6.582000000
H    -1.019000000    -5.260000000    -7.062000000
C    -0.066000000    -3.365000000    -7.162000000
H    -0.590000000    -3.042000000    -8.057000000
C     0.805000000    -2.492000000    -6.494000000
O     1.010000000    -1.289000000    -7.123000000
C     0.860000000    -0.112000000    -6.432000000
C     1.833000000     0.883000000    -6.585000000
H     2.681000000     0.785000000    -7.259000000
C     1.614000000     2.112000000    -5.916000000
O     2.575000000     3.119000000    -5.947000000
C     2.735000000     4.100000000    -5.013000000
C     2.763000000     5.412000000    -5.427000000
H     2.565000000     5.523000000    -6.490000000
C     3.180000000     6.501000000    -4.626000000
H     3.081000000     7.483000000    -5.082000000
C     3.467000000     6.256000000    -3.311000000
H     3.855000000     7.060000000    -2.691000000
C     3.380000000     4.998000000    -2.793000000
C     3.117000000     3.904000000    -3.663000000
H     3.042000000     2.947000000    -3.153000000
C     3.287000000     0.415000000    -2.205000000
H     3.730000000     0.291000000    -3.190000000
C     1.960000000     0.089000000    -2.144000000
H     1.366000000    -0.303000000    -2.966000000
C     1.262000000     0.264000000    -0.962000000
H     0.236000000     0.077000000    -0.935000000
C     1.855000000     0.842000000     0.132000000
H     1.342000000     1.088000000     1.058000000
C     3.170000000     1.245000000     0.032000000
H     3.708000000     1.775000000     0.814000000
C     3.928000000     0.949000000    -1.152000000
C     5.402000000     1.470000000    -1.226000000
O     5.830000000     2.067000000    -0.254000000
O     6.174000000     0.999000000    -2.098000000
O    10.387000000    -0.630000000    -0.400000000
H    10.391000000    -1.379000000    -0.996000000
H     9.518000000    -0.648000000     0.001000000
O    11.052000000     2.328000000    -3.882000000
H    10.781000000     2.370000000    -2.964000000
H    10.922000000     1.413000000    -4.129000000
O     9.018000000     2.891000000     4.109000000
H     8.396000000     3.056000000     3.401000000
H     8.500000000     2.979000000     4.909000000
O    10.204000000     3.122000000    -1.330000000
H    10.792000000     3.860000000    -1.491000000
H     9.479000000     3.498000000    -0.830000000
O     7.122000000    -1.144000000    -3.096000000
H     6.931000000    -0.296000000    -2.696000000
H     6.887000000    -1.784000000    -2.424000000
O     4.764000000    -1.500000000    -4.762000000
H     5.594000000    -1.083000000    -4.534000000
H     4.715000000    -1.430000000    -5.716000000
O     7.186000000    -0.785000000     3.932000000
H     7.316000000    -1.609000000     3.463000000
H     6.494000000    -0.338000000     3.445000000
O     4.658000000    -3.560000000    -3.154000000
H     3.828000000    -4.025000000    -3.259000000
H     4.673000000    -2.930000000    -3.874000000
O     6.884000000    -4.354000000     0.774000000
H     7.024000000    -3.885000000    -0.049000000
H     6.340000000    -3.765000000     1.296000000
O     4.931000000    -2.602000000     1.684000000
H     4.342000000    -2.730000000     0.941000000
H     4.630000000    -1.790000000     2.092000000
O     7.075000000     4.338000000    -1.209000000
H     6.703000000     3.636000000    -0.675000000
H     6.756000000     4.160000000    -2.094000000
O     8.160000000    -1.863000000    -5.306000000
H     8.095000000    -2.818000000    -5.288000000
H     7.808000000    -1.582000000    -4.462000000
O     6.870000000     3.623000000    -5.825000000
H     6.642000000     2.837000000    -6.322000000
H     7.301000000     3.292000000    -5.037000000
O     8.993000000     6.148000000    -1.789000000
H     8.181000000     5.661000000    -1.649000000
H     8.780000000     6.776000000    -2.479000000
O     7.840000000    -0.623000000     0.194000000
H     7.894000000     0.199000000    -0.293000000
H     7.252000000    -0.432000000     0.924000000
O     7.667000000     3.078000000     1.600000000
H     7.843000000     4.019000000     1.577000000
H     6.818000000     2.982000000     1.169000000
O     4.350000000    -2.053000000    -1.118000000
H     4.178000000    -1.294000000    -1.676000000
H     4.472000000    -2.777000000    -1.731000000
O     7.881000000     2.679000000    -3.433000000
H     8.716000000     2.677000000    -2.963000000
H     7.402000000     1.933000000    -3.072000000
O     5.727000000     0.242000000     1.773000000
H     5.674000000     1.048000000     1.259000000
H     5.536000000    -0.455000000     1.145000000
