215
-1473.44930
C     2.515000000    -2.495000000     3.972000000
H     1.782000000    -3.283000000     3.820000000
C     1.949000000    -1.208000000     4.044000000
C     2.899000000    -0.153000000     4.107000000
H     2.397000000     0.810000000     4.064000000
C     0.483000000    -0.908000000     3.868000000
O    -0.350000000    -2.054000000     4.147000000
H     0.370000000    -0.631000000     2.809000000
O     0.099000000     0.214000000     4.707000000
C    -0.782000000     1.127000000     4.273000000
C    -0.301000000     2.380000000     3.904000000
H     0.743000000     2.681000000     3.906000000
C    -1.074000000     3.271000000     3.180000000
O    -0.459000000     4.319000000     2.565000000
C    -2.454000000     2.961000000     3.046000000
C    -3.256000000     3.872000000     2.193000000
H    -4.315000000     3.707000000     2.403000000
C    -3.126000000     3.490000000     0.739000000
C    -4.106000000     2.679000000     0.186000000
H    -4.796000000     2.190000000     0.869000000
H    -3.067000000     4.915000000     2.457000000
C    -2.985000000     1.782000000     3.506000000
H    -4.040000000     1.580000000     3.342000000
C    -2.182000000     0.869000000     4.169000000
C    -2.813000000    -0.464000000     4.636000000
H    -3.876000000    -0.254000000     4.768000000
H    -2.467000000    -0.686000000     5.648000000
C    -2.690000000    -1.642000000     3.706000000
C    -3.770000000    -1.910000000     2.852000000
H    -4.642000000    -1.271000000     2.966000000
C    -1.519000000    -2.326000000     3.464000000
C    -1.439000000    -3.324000000     2.534000000
H    -0.561000000    -3.961000000     2.453000000
C    -2.547000000    -3.628000000     1.746000000
O    -2.234000000    -4.554000000     0.756000000
C    -1.812000000    -3.912000000    -0.535000000
C    -0.632000000    -4.631000000    -1.045000000
C    -0.614000000    -5.043000000    -2.415000000
H    -1.477000000    -5.018000000    -3.076000000
C     0.534000000    -4.743000000    -0.243000000
H     0.623000000    -4.300000000     0.746000000
O    -2.887000000    -3.826000000    -1.432000000
H    -1.496000000    -2.892000000    -0.269000000
C    -3.747000000    -2.874000000     1.822000000
C    -4.723000000    -2.912000000     0.656000000
H    -5.695000000    -2.525000000     0.967000000
H    -4.801000000    -3.986000000     0.474000000
C    -4.289000000    -2.052000000    -0.537000000
C    -4.847000000    -0.762000000    -0.644000000
H    -5.477000000    -0.290000000     0.105000000
C    -3.509000000    -2.596000000    -1.557000000
C    -3.185000000    -1.846000000    -2.673000000
H    -2.487000000    -2.192000000    -3.430000000
C    -3.697000000    -0.566000000    -2.739000000
O    -3.223000000     0.268000000    -3.708000000
C    -2.031000000     0.966000000    -3.298000000
C    -0.932000000     0.968000000    -4.439000000
C    -0.857000000    -0.176000000    -5.239000000
H    -1.484000000    -1.048000000    -5.067000000
C    -0.034000000     2.001000000    -4.590000000
H    -0.064000000     2.846000000    -3.907000000
O    -2.531000000     2.314000000    -3.253000000
H    -1.659000000     0.716000000    -2.294000000
C    -4.509000000    -0.047000000    -1.775000000
C    -4.954000000     1.398000000    -1.817000000
H    -5.864000000     1.395000000    -1.214000000
H    -5.169000000     1.737000000    -2.833000000
C    -3.913000000     2.274000000    -1.137000000
C    -2.902000000     2.802000000    -1.971000000
C    -2.030000000     3.733000000    -1.413000000
H    -1.281000000     4.151000000    -2.081000000
C    -2.053000000     4.038000000    -0.048000000
O    -1.161000000     4.888000000     0.457000000
C    -0.170000000     4.213000000     1.235000000
H    -0.124000000     3.151000000     0.950000000
C     1.147000000     4.966000000     1.019000000
C     2.117000000     4.833000000     1.987000000
H     1.866000000     4.667000000     3.032000000
C     1.514000000     5.221000000    -0.307000000
H     0.749000000     5.130000000    -1.074000000
C     2.824000000     5.598000000    -0.540000000
O     3.275000000     5.818000000    -1.841000000
C     3.756000000     5.661000000     0.498000000
H     4.743000000     6.088000000     0.338000000
C     3.426000000     5.322000000     1.781000000
O     4.354000000     5.251000000     2.807000000
C     4.301000000     4.253000000     3.753000000
C     4.711000000     2.940000000     3.423000000
H     5.054000000     2.759000000     2.407000000
C     3.850000000     4.511000000     5.079000000
H     3.429000000     5.505000000     5.205000000
C     3.716000000     3.463000000     6.037000000
H     3.284000000     3.769000000     6.987000000
C     4.161000000     2.180000000     5.654000000
H     4.065000000     1.322000000     6.315000000
C     4.707000000     1.938000000     4.425000000
O     5.124000000     0.650000000     4.192000000
C     4.232000000    -0.403000000     4.277000000
C     4.760000000    -1.669000000     4.378000000
H     5.831000000    -1.794000000     4.518000000
C     3.912000000    -2.767000000     4.074000000
O     4.253000000    -4.107000000     4.274000000
C     3.645000000    -5.004000000     3.448000000
C     3.470000000    -4.685000000     2.122000000
H     3.912000000    -3.769000000     1.739000000
C     3.013000000    -6.102000000     4.002000000
H     3.051000000    -6.236000000     5.080000000
C     2.226000000    -6.898000000     3.156000000
H     1.787000000    -7.759000000     3.654000000
C     2.169000000    -6.710000000     1.785000000
H     1.481000000    -7.234000000     1.126000000
C     2.858000000    -5.590000000     1.242000000
O     2.815000000    -5.368000000    -0.090000000
C     1.696000000    -5.253000000    -0.871000000
C     1.690000000    -5.474000000    -2.244000000
H     2.619000000    -5.688000000    -2.766000000
C     0.582000000    -5.398000000    -3.027000000
O     0.683000000    -5.654000000    -4.363000000
C     0.144000000    -4.785000000    -5.284000000
C     0.497000000    -3.440000000    -5.432000000
H     1.240000000    -2.982000000    -4.784000000
C    -0.782000000    -5.285000000    -6.196000000
H    -1.020000000    -6.335000000    -6.046000000
C    -1.245000000    -4.601000000    -7.321000000
H    -1.763000000    -5.120000000    -8.124000000
C    -0.913000000    -3.244000000    -7.419000000
H    -1.195000000    -2.649000000    -8.284000000
C     0.016000000    -2.654000000    -6.529000000
O     0.565000000    -1.400000000    -6.790000000
C     0.228000000    -0.289000000    -6.147000000
C     1.103000000     0.765000000    -6.317000000
H     1.848000000     0.784000000    -7.108000000
C     1.055000000     1.818000000    -5.431000000
O     1.950000000     2.909000000    -5.648000000
C     1.922000000     4.114000000    -4.904000000
C     0.952000000     5.021000000    -5.346000000
H     0.420000000     4.834000000    -6.275000000
C     0.716000000     6.205000000    -4.614000000
H    -0.133000000     6.819000000    -4.900000000
C     1.507000000     6.468000000    -3.448000000
H     1.254000000     7.361000000    -2.883000000
C     2.520000000     5.597000000    -3.029000000
C     2.669000000     4.405000000    -3.706000000
H     3.356000000     3.659000000    -3.314000000
C     1.595000000    -0.008000000    -1.929000000
H     1.292000000    -0.668000000    -2.737000000
C     0.708000000     0.074000000    -0.807000000
H    -0.116000000    -0.624000000    -0.679000000
C     0.986000000     0.960000000     0.230000000
H     0.305000000     0.980000000     1.099000000
C     2.176000000     1.746000000     0.139000000
H     2.353000000     2.441000000     0.956000000
C     3.047000000     1.567000000    -0.904000000
H     3.953000000     2.162000000    -0.811000000
C     2.765000000     0.726000000    -1.962000000
C     3.750000000     0.698000000    -3.038000000
O     4.820000000     1.309000000    -3.007000000
O     3.560000000    -0.037000000    -3.923000000
O     8.772000000    -1.117000000    -2.396000000
H     8.241000000    -1.884000000    -2.181000000
H     9.636000000    -1.473000000    -2.603000000
O     6.178000000    -2.018000000    -4.834000000
H     6.599000000    -1.200000000    -4.571000000
H     5.568000000    -1.763000000    -5.526000000
O     5.855000000    -0.361000000    -1.151000000
H     5.191000000    -1.035000000    -1.007000000
H     5.440000000     0.260000000    -1.750000000
O     4.332000000    -0.961000000    -6.446000000
H     4.746000000    -0.310000000    -7.011000000
H     3.968000000    -0.452000000    -5.721000000
O     3.761000000    -3.650000000    -6.499000000
H     4.325000000    -2.944000000    -6.817000000
H     2.876000000    -3.287000000    -6.543000000
O     8.714000000     2.286000000    -0.705000000
H     9.333000000     1.609000000    -0.432000000
H     8.998000000     2.528000000    -1.587000000
O     3.428000000    -2.605000000    -3.353000000
H     4.047000000    -3.008000000    -3.962000000
H     3.397000000    -1.686000000    -3.618000000
O     5.852000000     1.737000000    -8.048000000
H     6.696000000     1.350000000    -7.815000000
H     5.644000000     2.319000000    -7.317000000
O     7.583000000     0.390000000    -4.187000000
H     7.066000000     0.948000000    -3.607000000
H     8.096000000    -0.161000000    -3.596000000
O     3.757000000    -2.219000000    -0.644000000
H     2.871000000    -1.861000000    -0.592000000
H     3.726000000    -2.830000000    -1.381000000
O     5.771000000    -1.702000000     1.503000000
H     5.496000000    -0.994000000     2.086000000
H     4.985000000    -1.918000000     1.001000000
O     6.507000000     4.395000000    -4.763000000
H     5.833000000     3.874000000    -5.202000000
H     6.389000000     4.203000000    -3.833000000
O     8.303000000     0.736000000    -6.759000000
H     9.178000000     0.348000000    -6.770000000
H     7.940000000     0.483000000    -5.910000000
O     5.892000000     6.829000000    -2.685000000
H     5.574000000     6.780000000    -3.587000000
H     5.475000000     6.089000000    -2.244000000
O     6.537000000     1.683000000     0.735000000
H     6.411000000     0.981000000     0.097000000
H     7.162000000     2.276000000     0.319000000
O     9.800000000     2.127000000    -3.726000000
H    10.493000000     1.470000000    -3.787000000
H     9.028000000     1.695000000    -4.091000000
O     6.266000000     3.382000000    -2.139000000
H     6.882000000     3.129000000    -1.451000000
H     5.765000000     2.586000000    -2.317000000
O     8.237000000    -0.939000000     0.330000000
H     7.330000000    -0.915000000     0.632000000
H     8.178000000    -1.215000000    -0.585000000
O     4.636000000     2.595000000    -5.525000000
H     3.710000000     2.495000000    -5.747000000
H     4.794000000     1.937000000    -4.849000000
