215
-1451.36912
C     2.110000000    -2.814000000     4.022000000
H     1.417000000    -3.638000000     3.871000000
C     1.600000000    -1.568000000     4.174000000
C     2.489000000    -0.538000000     4.175000000
H     2.143000000     0.492000000     4.146000000
C     0.143000000    -1.286000000     4.024000000
O    -0.651000000    -2.548000000     4.250000000
H    -0.011000000    -0.937000000     2.992000000
O    -0.182000000    -0.155000000     4.855000000
C    -1.072000000     0.805000000     4.422000000
C    -0.564000000     2.032000000     4.064000000
H     0.500000000     2.161000000     4.246000000
C    -1.341000000     2.959000000     3.391000000
O    -0.773000000     4.105000000     2.850000000
C    -2.616000000     2.623000000     3.033000000
C    -3.393000000     3.493000000     2.156000000
H    -4.426000000     3.274000000     2.437000000
C    -3.256000000     3.343000000     0.671000000
C    -4.129000000     2.479000000    -0.042000000
H    -4.994000000     2.157000000     0.531000000
H    -3.216000000     4.522000000     2.473000000
C    -3.197000000     1.381000000     3.466000000
H    -4.219000000     1.117000000     3.206000000
C    -2.398000000     0.467000000     4.150000000
C    -2.955000000    -0.945000000     4.489000000
H    -4.036000000    -0.864000000     4.617000000
H    -2.514000000    -1.171000000     5.462000000
C    -2.698000000    -1.852000000     3.262000000
C    -3.607000000    -2.018000000     2.230000000
H    -4.352000000    -1.235000000     2.107000000
C    -1.693000000    -2.782000000     3.331000000
C    -1.610000000    -3.890000000     2.441000000
H    -0.800000000    -4.582000000     2.659000000
C    -2.499000000    -3.915000000     1.376000000
O    -2.189000000    -4.683000000     0.327000000
C    -1.629000000    -4.119000000    -0.867000000
C    -0.399000000    -4.847000000    -1.410000000
C     0.053000000    -4.572000000    -2.681000000
H    -0.512000000    -3.899000000    -3.321000000
C     0.540000000    -5.474000000    -0.495000000
H     0.213000000    -5.447000000     0.541000000
O    -2.691000000    -3.952000000    -1.820000000
H    -1.315000000    -3.086000000    -0.654000000
C    -3.546000000    -2.965000000     1.286000000
C    -4.601000000    -3.075000000     0.259000000
H    -5.510000000    -2.753000000     0.771000000
H    -4.719000000    -4.143000000     0.066000000
C    -4.185000000    -2.257000000    -0.902000000
C    -4.788000000    -0.996000000    -1.044000000
H    -5.507000000    -0.641000000    -0.310000000
C    -3.229000000    -2.681000000    -1.873000000
C    -2.969000000    -1.867000000    -3.008000000
H    -2.347000000    -2.263000000    -3.806000000
C    -3.512000000    -0.549000000    -3.026000000
O    -3.002000000     0.310000000    -4.011000000
C    -2.085000000     1.299000000    -3.561000000
C    -0.845000000     1.527000000    -4.418000000
C    -0.382000000     0.410000000    -5.133000000
H    -0.967000000    -0.504000000    -5.197000000
C    -0.184000000     2.716000000    -4.479000000
H    -0.592000000     3.586000000    -3.970000000
O    -2.692000000     2.577000000    -3.357000000
H    -1.712000000     0.953000000    -2.585000000
C    -4.456000000    -0.166000000    -2.110000000
C    -4.977000000     1.244000000    -2.153000000
H    -5.985000000     1.262000000    -1.731000000
H    -5.218000000     1.615000000    -3.151000000
C    -4.045000000     2.230000000    -1.404000000
C    -2.977000000     2.900000000    -2.070000000
C    -2.122000000     3.795000000    -1.403000000
H    -1.328000000     4.263000000    -1.979000000
C    -2.257000000     3.961000000    -0.064000000
O    -1.370000000     4.817000000     0.544000000
C    -0.401000000     4.160000000     1.393000000
H    -0.185000000     3.142000000     1.038000000
C     0.919000000     4.747000000     1.231000000
C     1.914000000     4.667000000     2.253000000
H     1.535000000     4.331000000     3.215000000
C     1.351000000     5.246000000     0.045000000
H     0.633000000     5.333000000    -0.767000000
C     2.637000000     5.744000000    -0.187000000
O     3.166000000     6.091000000    -1.413000000
C     3.533000000     5.629000000     0.871000000
H     4.556000000     5.929000000     0.661000000
C     3.178000000     5.175000000     2.122000000
O     4.127000000     5.013000000     3.058000000
C     4.194000000     4.005000000     4.037000000
C     4.516000000     2.706000000     3.652000000
H     4.962000000     2.443000000     2.696000000
C     3.595000000     4.266000000     5.254000000
H     3.115000000     5.207000000     5.510000000
C     3.237000000     3.141000000     6.044000000
H     2.548000000     3.332000000     6.863000000
C     3.607000000     1.884000000     5.739000000
H     3.443000000     1.022000000     6.381000000
C     4.308000000     1.703000000     4.518000000
O     4.671000000     0.452000000     4.081000000
C     3.842000000    -0.688000000     4.105000000
C     4.346000000    -1.969000000     3.973000000
H     5.419000000    -2.125000000     3.905000000
C     3.502000000    -3.039000000     4.028000000
O     4.073000000    -4.318000000     3.886000000
C     3.339000000    -5.355000000     3.332000000
C     3.431000000    -5.503000000     1.982000000
H     4.063000000    -4.858000000     1.377000000
C     2.422000000    -6.154000000     4.086000000
H     2.359000000    -5.936000000     5.149000000
C     1.604000000    -7.074000000     3.426000000
H     0.940000000    -7.700000000     4.018000000
C     1.632000000    -7.167000000     2.030000000
H     1.082000000    -7.933000000     1.489000000
C     2.622000000    -6.406000000     1.348000000
O     2.742000000    -6.530000000    -0.092000000
C     1.787000000    -5.947000000    -0.913000000
C     2.186000000    -5.747000000    -2.178000000
H     3.134000000    -6.142000000    -2.534000000
C     1.347000000    -5.026000000    -3.071000000
O     1.992000000    -4.620000000    -4.241000000
C     1.399000000    -3.975000000    -5.279000000
C     1.558000000    -2.593000000    -5.449000000
H     2.231000000    -2.073000000    -4.772000000
C     0.671000000    -4.717000000    -6.226000000
H     0.585000000    -5.796000000    -6.128000000
C     0.019000000    -4.051000000    -7.245000000
H    -0.662000000    -4.627000000    -7.866000000
C     0.239000000    -2.669000000    -7.446000000
H    -0.245000000    -2.172000000    -8.284000000
C     0.961000000    -1.911000000    -6.466000000
O     1.220000000    -0.553000000    -6.583000000
C     0.736000000     0.525000000    -5.849000000
C     1.325000000     1.761000000    -6.028000000
H     2.250000000     1.858000000    -6.591000000
C     0.953000000     2.837000000    -5.236000000
O     1.664000000     3.993000000    -5.332000000
C     1.457000000     5.009000000    -4.491000000
C     0.896000000     6.186000000    -4.920000000
H     0.433000000     6.378000000    -5.885000000
C     0.947000000     7.322000000    -4.105000000
H     0.518000000     8.276000000    -4.402000000
C     1.668000000     7.327000000    -2.917000000
H     1.701000000     8.157000000    -2.216000000
C     2.301000000     6.159000000    -2.516000000
C     2.217000000     4.967000000    -3.324000000
H     2.793000000     4.070000000    -3.111000000
C     1.403000000    -0.202000000    -2.148000000
H     1.680000000    -0.373000000    -3.185000000
C     0.145000000    -0.531000000    -1.670000000
H    -0.529000000    -1.101000000    -2.305000000
C    -0.214000000    -0.136000000    -0.344000000
H    -1.203000000    -0.326000000     0.047000000
C     0.675000000     0.521000000     0.455000000
H     0.467000000     0.859000000     1.467000000
C     2.000000000     0.782000000    -0.020000000
H     2.724000000     1.358000000     0.550000000
C     2.300000000     0.438000000    -1.326000000
C     3.678000000     0.666000000    -2.018000000
O     4.526000000     1.399000000    -1.527000000
O     3.939000000    -0.008000000    -3.017000000
O     4.279000000     2.186000000    -8.738000000
H     4.688000000     1.948000000    -7.906000000
H     4.354000000     1.397000000    -9.276000000
O     7.512000000    -0.185000000     2.805000000
H     6.842000000     0.108000000     3.423000000
H     8.247000000    -0.453000000     3.357000000
O     7.647000000     3.025000000     2.957000000
H     7.192000000     3.864000000     3.034000000
H     7.516000000     2.764000000     2.046000000
O     7.204000000    -3.047000000    -2.123000000
H     8.062000000    -3.432000000    -2.298000000
H     7.332000000    -2.107000000    -2.255000000
O     7.699000000    -1.098000000    -5.165000000
H     6.874000000    -0.819000000    -4.767000000
H     7.558000000    -0.996000000    -6.106000000
O     6.933000000    -0.314000000    -2.427000000
H     6.183000000     0.023000000    -2.918000000
H     6.977000000     0.241000000    -1.648000000
O     4.744000000    -0.719000000    -5.515000000
H     4.335000000    -0.605000000    -4.657000000
H     5.045000000     0.157000000    -5.755000000
O     9.773000000    -0.489000000    -2.648000000
H     8.859000000    -0.207000000    -2.663000000
H    10.079000000    -0.361000000    -3.546000000
O     3.616000000    -2.709000000    -1.953000000
H     2.735000000    -2.739000000    -1.579000000
H     3.656000000    -1.865000000    -2.402000000
O     8.147000000     3.316000000    -3.779000000
H     8.232000000     2.677000000    -4.487000000
H     8.889000000     3.133000000    -3.202000000
O     5.443000000    -3.614000000    -0.302000000
H     6.046000000    -3.377000000    -1.007000000
H     4.589000000    -3.303000000    -0.602000000
O     4.855000000    -4.748000000    -3.948000000
H     5.222000000    -3.936000000    -3.598000000
H     3.924000000    -4.559000000    -4.066000000
O     6.352000000     5.496000000    -1.105000000
H     6.424000000     4.635000000    -0.693000000
H     5.439000000     5.552000000    -1.385000000
O     7.948000000     0.486000000    -0.087000000
H     7.822000000     0.182000000     0.812000000
H     8.557000000    -0.145000000    -0.470000000
O     6.509000000     2.762000000    -0.390000000
H     7.177000000     2.143000000    -0.095000000
H     5.764000000     2.211000000    -0.633000000
O     7.175000000    -3.168000000     1.673000000
H     6.621000000    -3.313000000     0.906000000
H     7.315000000    -2.221000000     1.692000000
O     5.416000000     2.647000000    -3.911000000
H     4.787000000     2.376000000    -3.243000000
H     6.112000000     3.084000000    -3.421000000
O     5.800000000     1.861000000    -6.358000000
H     6.669000000     2.111000000    -6.671000000
H     5.765000000     2.190000000    -5.460000000
O     3.989000000    -1.591000000    -8.223000000
H     3.378000000    -2.319000000    -8.111000000
H     4.174000000    -1.294000000    -7.332000000
