215
-1475.86843
C     2.590000000    -2.275000000     4.400000000
H     1.959000000    -3.160000000     4.430000000
C     2.013000000    -1.003000000     4.456000000
C     2.804000000     0.126000000     4.484000000
H     2.442000000     1.151000000     4.524000000
C     0.508000000    -0.759000000     4.387000000
O    -0.287000000    -1.938000000     4.734000000
H     0.264000000    -0.601000000     3.326000000
O    -0.049000000     0.374000000     4.963000000
C    -1.004000000     1.262000000     4.297000000
C    -0.594000000     2.486000000     3.777000000
H     0.376000000     2.969000000     3.857000000
C    -1.446000000     3.233000000     3.030000000
O    -0.861000000     4.275000000     2.310000000
C    -2.778000000     2.910000000     2.910000000
C    -3.721000000     3.738000000     2.128000000
H    -4.727000000     3.617000000     2.536000000
C    -3.543000000     3.254000000     0.697000000
C    -4.355000000     2.253000000     0.188000000
H    -5.091000000     1.713000000     0.779000000
H    -3.451000000     4.794000000     2.184000000
C    -3.271000000     1.730000000     3.512000000
H    -4.318000000     1.441000000     3.490000000
C    -2.338000000     0.895000000     4.179000000
C    -2.821000000    -0.445000000     4.734000000
H    -3.911000000    -0.484000000     4.778000000
H    -2.451000000    -0.687000000     5.733000000
C    -2.498000000    -1.604000000     3.763000000
C    -3.517000000    -1.973000000     2.874000000
H    -4.495000000    -1.501000000     2.930000000
C    -1.272000000    -2.246000000     3.836000000
C    -1.026000000    -3.289000000     2.917000000
H    -0.083000000    -3.828000000     2.880000000
C    -1.990000000    -3.625000000     1.983000000
O    -1.593000000    -4.514000000     0.989000000
C    -1.324000000    -3.944000000    -0.291000000
C     0.004000000    -4.395000000    -0.920000000
C     0.155000000    -4.415000000    -2.335000000
H    -0.677000000    -4.065000000    -2.940000000
C     1.052000000    -4.886000000    -0.102000000
H     0.877000000    -4.954000000     0.969000000
O    -2.511000000    -4.175000000    -1.154000000
H    -1.125000000    -2.864000000    -0.222000000
C    -3.231000000    -2.980000000     1.933000000
C    -4.278000000    -3.450000000     0.976000000
H    -5.256000000    -3.359000000     1.453000000
H    -4.150000000    -4.517000000     0.781000000
C    -4.195000000    -2.607000000    -0.299000000
C    -4.829000000    -1.352000000    -0.437000000
H    -5.458000000    -1.082000000     0.408000000
C    -3.291000000    -3.063000000    -1.255000000
C    -3.080000000    -2.334000000    -2.453000000
H    -2.507000000    -2.778000000    -3.263000000
C    -3.740000000    -1.091000000    -2.556000000
O    -3.306000000    -0.289000000    -3.608000000
C    -2.344000000     0.824000000    -3.423000000
C    -1.325000000     0.852000000    -4.603000000
C    -1.170000000    -0.213000000    -5.453000000
H    -1.831000000    -1.075000000    -5.410000000
C    -0.557000000     1.980000000    -4.810000000
H    -0.804000000     2.888000000    -4.266000000
O    -3.087000000     2.091000000    -3.275000000
H    -1.775000000     0.573000000    -2.516000000
C    -4.591000000    -0.568000000    -1.551000000
C    -5.290000000     0.784000000    -1.675000000
H    -6.211000000     0.778000000    -1.089000000
H    -5.627000000     0.998000000    -2.691000000
C    -4.373000000     1.859000000    -1.186000000
C    -3.408000000     2.473000000    -1.981000000
C    -2.623000000     3.459000000    -1.475000000
H    -1.890000000     3.904000000    -2.144000000
C    -2.646000000     3.868000000    -0.185000000
O    -1.575000000     4.689000000     0.206000000
C    -0.536000000     4.059000000     0.955000000
H    -0.492000000     2.979000000     0.754000000
C     0.866000000     4.627000000     0.625000000
C     1.897000000     4.581000000     1.536000000
H     1.693000000     4.290000000     2.563000000
C     1.173000000     5.097000000    -0.693000000
H     0.352000000     5.070000000    -1.404000000
C     2.395000000     5.638000000    -1.122000000
O     2.786000000     5.978000000    -2.396000000
C     3.373000000     5.629000000    -0.107000000
H     4.317000000     6.144000000    -0.261000000
C     3.118000000     5.073000000     1.157000000
O     4.097000000     5.144000000     2.086000000
C     4.176000000     4.285000000     3.225000000
C     4.447000000     2.945000000     3.035000000
H     4.562000000     2.632000000     2.000000000
C     4.286000000     4.905000000     4.468000000
H     4.315000000     5.991000000     4.466000000
C     4.548000000     4.233000000     5.616000000
H     4.604000000     4.596000000     6.639000000
C     4.655000000     2.862000000     5.471000000
H     4.896000000     2.230000000     6.322000000
C     4.738000000     2.290000000     4.201000000
O     5.106000000     0.973000000     4.270000000
C     4.207000000    -0.092000000     4.467000000
C     4.767000000    -1.340000000     4.310000000
H     5.838000000    -1.416000000     4.143000000
C     3.955000000    -2.427000000     4.286000000
O     4.499000000    -3.698000000     4.175000000
C     3.864000000    -4.693000000     3.484000000
C     3.799000000    -4.746000000     2.106000000
H     4.106000000    -3.873000000     1.535000000
C     3.368000000    -5.824000000     4.155000000
H     3.434000000    -5.743000000     5.237000000
C     2.854000000    -6.973000000     3.473000000
H     2.564000000    -7.807000000     4.107000000
C     2.821000000    -6.954000000     2.080000000
H     2.488000000    -7.734000000     1.400000000
C     3.299000000    -5.802000000     1.431000000
O     3.339000000    -5.769000000     0.054000000
C     2.249000000    -5.252000000    -0.671000000
C     2.393000000    -5.224000000    -2.038000000
H     3.399000000    -5.414000000    -2.403000000
C     1.404000000    -4.741000000    -2.881000000
O     1.640000000    -4.726000000    -4.206000000
C     0.743000000    -4.369000000    -5.181000000
C     1.072000000    -3.168000000    -5.769000000
H     1.963000000    -2.604000000    -5.504000000
C    -0.354000000    -5.128000000    -5.556000000
H    -0.403000000    -6.146000000    -5.178000000
C    -1.221000000    -4.548000000    -6.447000000
H    -2.009000000    -5.211000000    -6.796000000
C    -1.072000000    -3.289000000    -6.944000000
H    -1.852000000    -2.891000000    -7.588000000
C     0.073000000    -2.598000000    -6.655000000
O     0.183000000    -1.344000000    -7.094000000
C    -0.042000000    -0.218000000    -6.279000000
C     0.815000000     0.830000000    -6.388000000
H     1.731000000     0.873000000    -6.971000000
C     0.494000000     1.987000000    -5.690000000
O     1.396000000     3.074000000    -5.914000000
C     1.265000000     4.285000000    -5.190000000
C     0.278000000     5.214000000    -5.591000000
H    -0.493000000     4.954000000    -6.312000000
C     0.165000000     6.446000000    -4.974000000
H    -0.615000000     7.131000000    -5.299000000
C     0.929000000     6.716000000    -3.828000000
H     0.713000000     7.607000000    -3.244000000
C     1.933000000     5.807000000    -3.497000000
C     2.169000000     4.642000000    -4.183000000
H     2.957000000     4.033000000    -3.747000000
C     1.488000000     0.081000000    -2.667000000
H     1.532000000    -0.559000000    -3.546000000
C     0.444000000    -0.165000000    -1.747000000
H    -0.342000000    -0.852000000    -2.051000000
C     0.320000000     0.583000000    -0.608000000
H    -0.562000000     0.413000000     0.043000000
C     1.329000000     1.479000000    -0.281000000
H     1.296000000     1.996000000     0.675000000
C     2.393000000     1.655000000    -1.119000000
H     3.177000000     2.377000000    -0.907000000
C     2.511000000     0.985000000    -2.342000000
C     3.672000000     1.080000000    -3.291000000
O     4.583000000     1.906000000    -3.135000000
O     3.730000000     0.254000000    -4.201000000
O     2.705000000     0.121000000    -9.143000000
H     3.573000000     0.524000000    -9.129000000
H     2.878000000    -0.818000000    -9.206000000
O     6.920000000     6.264000000    -1.379000000
H     6.905000000     7.034000000    -1.946000000
H     6.405000000     5.609000000    -1.850000000
O     7.142000000    -2.032000000    -3.950000000
H     7.826000000    -1.513000000    -3.526000000
H     7.407000000    -2.071000000    -4.869000000
O     5.955000000     1.514000000    -0.742000000
H     5.660000000     0.718000000    -0.300000000
H     5.461000000     1.530000000    -1.562000000
O     5.801000000    -0.114000000    -5.709000000
H     4.994000000    -0.060000000    -5.196000000
H     6.478000000     0.234000000    -5.128000000
O     4.608000000    -1.888000000    -2.798000000
H     5.434000000    -2.138000000    -3.212000000
H     4.203000000    -1.282000000    -3.419000000
O     6.082000000     3.856000000    -8.135000000
H     6.900000000     3.755000000    -7.648000000
H     5.468000000     3.267000000    -7.695000000
O     7.055000000     1.543000000    -3.947000000
H     6.117000000     1.540000000    -3.755000000
H     7.447000000     2.015000000    -3.211000000
O     4.405000000    -0.776000000    -0.137000000
H     3.462000000    -0.769000000     0.025000000
H     4.498000000    -1.205000000    -0.987000000
O     6.797000000    -2.456000000     0.739000000
H     7.052000000    -1.609000000     1.105000000
H     5.853000000    -2.381000000     0.596000000
O     4.607000000     6.308000000    -5.313000000
H     4.460000000     5.573000000    -5.908000000
H     5.133000000     5.939000000    -4.603000000
O     6.839000000    -0.557000000    -8.289000000
H     6.645000000    -0.199000000    -7.423000000
H     7.498000000    -1.232000000    -8.127000000
O     8.251000000     3.151000000    -6.147000000
H     8.467000000     4.017000000    -5.802000000
H     7.566000000     2.825000000    -5.563000000
O     7.205000000     3.168000000     0.908000000
H     6.786000000     2.411000000     0.498000000
H     7.421000000     3.747000000     0.177000000
O     8.774000000     3.378000000    -2.855000000
H     8.980000000     4.271000000    -2.577000000
H     9.566000000     3.079000000    -3.303000000
O     5.757000000     4.465000000    -3.386000000
H     6.627000000     4.068000000    -3.438000000
H     5.186000000     3.753000000    -3.098000000
O     7.609000000     0.110000000     1.501000000
H     8.513000000     0.423000000     1.502000000
H     7.256000000     0.399000000     0.659000000
O     4.228000000     2.352000000    -6.640000000
H     3.386000000     2.779000000    -6.478000000
H     4.303000000     1.699000000    -5.944000000
O     5.941000000    -3.989000000    -6.171000000
H     5.355000000    -3.753000000    -6.891000000
H     6.230000000    -3.150000000    -5.813000000
