215
-1467.34453
C     3.809000000    -2.847000000    -1.214000000
H     3.098000000    -3.639000000    -1.435000000
C     4.020000000    -2.326000000     0.103000000
C     4.998000000    -1.376000000     0.327000000
H     5.126000000    -0.986000000     1.334000000
C     3.125000000    -2.816000000     1.198000000
O     2.607000000    -4.176000000     1.046000000
H     2.262000000    -2.154000000     1.031000000
O     3.673000000    -2.726000000     2.542000000
C     2.885000000    -1.999000000     3.433000000
C     3.086000000    -0.620000000     3.652000000
H     4.050000000    -0.215000000     3.357000000
C     2.087000000     0.159000000     4.204000000
O     2.206000000     1.594000000     4.109000000
C     0.951000000    -0.417000000     4.766000000
C    -0.150000000     0.334000000     5.477000000
H    -0.632000000    -0.246000000     6.267000000
C    -1.225000000     0.913000000     4.603000000
C    -2.445000000     0.213000000     4.367000000
H    -2.633000000    -0.732000000     4.871000000
H     0.386000000     1.171000000     5.928000000
C     0.767000000    -1.779000000     4.548000000
H    -0.181000000    -2.183000000     4.894000000
C     1.640000000    -2.582000000     3.869000000
C     1.344000000    -4.054000000     3.682000000
H     0.798000000    -4.498000000     4.517000000
H     2.303000000    -4.572000000     3.619000000
C     0.615000000    -4.283000000     2.428000000
C    -0.809000000    -4.240000000     2.422000000
H    -1.407000000    -3.922000000     3.272000000
C     1.333000000    -4.468000000     1.170000000
C     0.565000000    -4.615000000    -0.013000000
H     0.978000000    -4.599000000    -1.018000000
C    -0.828000000    -4.630000000     0.012000000
O    -1.506000000    -4.470000000    -1.241000000
C    -1.908000000    -3.126000000    -1.553000000
C    -1.739000000    -2.865000000    -3.074000000
C    -2.587000000    -2.015000000    -3.817000000
H    -3.498000000    -1.596000000    -3.399000000
C    -0.670000000    -3.441000000    -3.715000000
H    -0.001000000    -4.043000000    -3.105000000
O    -3.310000000    -2.963000000    -1.283000000
H    -1.390000000    -2.368000000    -0.946000000
C    -1.497000000    -4.464000000     1.210000000
C    -3.011000000    -4.399000000     1.270000000
H    -3.380000000    -4.699000000     2.253000000
H    -3.540000000    -4.948000000     0.489000000
C    -3.456000000    -2.966000000     1.157000000
C    -3.956000000    -2.167000000     2.217000000
H    -3.838000000    -2.594000000     3.209000000
C    -3.599000000    -2.306000000    -0.128000000
C    -4.229000000    -1.114000000    -0.289000000
H    -4.397000000    -0.774000000    -1.308000000
C    -4.665000000    -0.416000000     0.805000000
O    -5.144000000     0.888000000     0.592000000
C    -4.079000000     1.874000000     0.709000000
C    -4.103000000     2.855000000    -0.514000000
C    -4.408000000     2.450000000    -1.808000000
H    -4.847000000     1.461000000    -1.912000000
C    -3.598000000     4.122000000    -0.317000000
H    -3.154000000     4.434000000     0.625000000
O    -4.020000000     2.498000000     2.007000000
H    -3.104000000     1.399000000     0.522000000
C    -4.490000000    -0.971000000     2.078000000
C    -4.691000000    -0.027000000     3.309000000
H    -4.957000000    -0.573000000     4.217000000
H    -5.441000000     0.747000000     3.136000000
C    -3.416000000     0.722000000     3.537000000
C    -3.175000000     1.940000000     2.910000000
C    -1.955000000     2.559000000     3.024000000
H    -1.914000000     3.552000000     2.583000000
C    -0.969000000     2.091000000     3.876000000
O     0.171000000     2.784000000     3.837000000
C     1.369000000     2.280000000     3.072000000
H     1.020000000     1.639000000     2.249000000
C     2.143000000     3.311000000     2.421000000
C     3.512000000     3.213000000     2.296000000
H     4.068000000     2.413000000     2.776000000
C     1.509000000     4.312000000     1.671000000
H     0.423000000     4.299000000     1.713000000
C     2.248000000     5.263000000     0.908000000
O     1.635000000     6.230000000     0.132000000
C     3.653000000     5.209000000     0.904000000
H     4.165000000     5.940000000     0.283000000
C     4.293000000     4.211000000     1.629000000
O     5.662000000     4.096000000     1.597000000
C     6.405000000     2.920000000     1.539000000
C     6.226000000     1.970000000     0.560000000
H     5.425000000     2.132000000    -0.156000000
C     7.399000000     2.712000000     2.492000000
H     7.573000000     3.426000000     3.292000000
C     8.264000000     1.613000000     2.478000000
H     9.117000000     1.559000000     3.150000000
C     8.035000000     0.651000000     1.502000000
H     8.690000000    -0.215000000     1.451000000
C     7.007000000     0.812000000     0.554000000
O     6.844000000    -0.068000000    -0.491000000
C     5.816000000    -0.896000000    -0.662000000
C     5.640000000    -1.462000000    -1.940000000
H     6.384000000    -1.079000000    -2.634000000
C     4.639000000    -2.404000000    -2.240000000
O     4.424000000    -2.914000000    -3.542000000
C     3.585000000    -3.913000000    -4.023000000
C     2.327000000    -3.543000000    -4.506000000
H     1.975000000    -2.534000000    -4.306000000
C     4.069000000    -5.167000000    -4.296000000
H     5.085000000    -5.375000000    -3.969000000
C     3.382000000    -6.032000000    -5.139000000
H     3.963000000    -6.898000000    -5.446000000
C     2.077000000    -5.719000000    -5.565000000
H     1.484000000    -6.299000000    -6.268000000
C     1.568000000    -4.500000000    -5.245000000
O     0.389000000    -4.046000000    -5.865000000
C    -0.603000000    -3.428000000    -5.123000000
C    -1.484000000    -2.706000000    -5.828000000
H    -1.483000000    -2.847000000    -6.906000000
C    -2.469000000    -1.998000000    -5.225000000
O    -3.373000000    -1.319000000    -5.969000000
C    -4.327000000    -0.445000000    -5.498000000
C    -3.976000000     0.816000000    -5.097000000
H    -2.927000000     1.071000000    -4.967000000
C    -5.704000000    -0.886000000    -5.414000000
H    -5.954000000    -1.901000000    -5.711000000
C    -6.575000000    -0.130000000    -4.771000000
H    -7.621000000    -0.421000000    -4.719000000
C    -6.254000000     1.139000000    -4.364000000
H    -6.976000000     1.776000000    -3.861000000
C    -4.941000000     1.628000000    -4.548000000
O    -4.607000000     2.887000000    -4.179000000
C    -4.381000000     3.330000000    -2.860000000
C    -3.850000000     4.591000000    -2.728000000
H    -3.726000000     5.195000000    -3.623000000
C    -3.487000000     4.984000000    -1.412000000
O    -3.015000000     6.273000000    -1.206000000
C    -2.029000000     6.561000000    -0.325000000
C    -2.315000000     7.493000000     0.712000000
H    -3.317000000     7.915000000     0.725000000
C    -1.311000000     7.892000000     1.579000000
H    -1.552000000     8.588000000     2.378000000
C    -0.031000000     7.391000000     1.393000000
H     0.706000000     7.498000000     2.185000000
C     0.282000000     6.576000000     0.335000000
C    -0.715000000     6.155000000    -0.556000000
H    -0.477000000     5.454000000    -1.352000000
C    -0.093000000     0.063000000    -2.641000000
H    -0.490000000    -0.012000000    -3.650000000
C    -0.865000000     0.119000000    -1.511000000
H    -1.936000000    -0.062000000    -1.475000000
C    -0.293000000     0.017000000    -0.250000000
H    -0.922000000    -0.052000000     0.692000000
C     1.096000000     0.024000000    -0.165000000
H     1.580000000    -0.077000000     0.803000000
C     1.860000000     0.129000000    -1.351000000
H     2.930000000     0.307000000    -1.280000000
C     1.223000000     0.165000000    -2.567000000
C     2.019000000     0.154000000    -3.820000000
O     3.261000000     0.219000000    -3.707000000
O     1.465000000     0.476000000    -4.822000000
O     0.109000000     4.741000000    -4.588000000
H     0.507000000     4.455000000    -3.765000000
H     0.740000000     4.484000000    -5.261000000
O     6.370000000     3.271000000    -2.332000000
H     6.595000000     3.327000000    -1.403000000
H     6.901000000     2.547000000    -2.663000000
O    -0.357000000    -1.484000000    -9.474000000
H    -0.691000000    -0.779000000    -8.919000000
H    -0.040000000    -1.040000000   -10.260000000
O     3.139000000     2.305000000    -5.774000000
H     2.602000000     1.626000000    -5.366000000
H     3.468000000     1.900000000    -6.576000000
O     6.791000000    -2.833000000    -4.712000000
H     6.532000000    -2.526000000    -5.581000000
H     5.965000000    -2.948000000    -4.242000000
O    -1.578000000     0.476000000    -7.643000000
H    -2.383000000     0.034000000    -7.373000000
H    -1.312000000     0.980000000    -6.875000000
O     7.780000000     1.552000000    -3.767000000
H     8.691000000     1.320000000    -3.589000000
H     7.481000000     0.889000000    -4.390000000
O     4.722000000     1.185000000    -7.786000000
H     5.348000000     0.580000000    -8.185000000
H     4.043000000     1.300000000    -8.450000000
O     1.909000000     5.005000000    -6.798000000
H     2.561000000     4.654000000    -6.191000000
H     1.844000000     4.345000000    -7.489000000
O     2.493000000     1.427000000    -9.415000000
H     1.765000000     1.927000000    -9.045000000
H     2.401000000     1.534000000   -10.361000000
O     5.366000000     0.030000000    -5.330000000
H     5.290000000     0.809000000    -5.880000000
H     4.639000000     0.101000000    -4.711000000
O     1.213000000     3.408000000    -2.403000000
H     2.132000000     3.142000000    -2.432000000
H     0.772000000     2.697000000    -1.938000000
O     3.794000000     2.408000000    -2.416000000
H     4.725000000     2.629000000    -2.429000000
H     3.733000000     1.598000000    -2.921000000
O     3.104000000     6.737000000    -3.029000000
H     2.388000000     6.115000000    -2.903000000
H     3.849000000     6.196000000    -3.291000000
O    -0.633000000     2.171000000    -5.376000000
H     0.064000000     1.646000000    -4.983000000
H    -0.532000000     3.037000000    -4.981000000
O     1.822000000    -1.368000000    -6.807000000
H     1.215000000    -1.206000000    -7.529000000
H     1.541000000    -0.765000000    -6.118000000
O     2.979000000    -1.754000000    -9.627000000
H     3.401000000    -1.832000000    -8.771000000
H     2.310000000    -1.081000000    -9.503000000
O     4.566000000    -2.214000000    -6.839000000
H     5.011000000    -1.469000000    -6.435000000
H     3.661000000    -2.146000000    -6.536000000
O     4.794000000     4.732000000    -4.106000000
H     4.505000000     3.944000000    -4.566000000
H     5.342000000     4.405000000    -3.392000000
