215
-1464.45534
C     2.444000000    -2.501000000     3.600000000
H     1.806000000    -3.376000000     3.504000000
C     1.898000000    -1.195000000     3.585000000
C     2.754000000    -0.122000000     3.424000000
H     2.373000000     0.893000000     3.343000000
C     0.389000000    -0.967000000     3.679000000
O    -0.263000000    -2.113000000     4.215000000
H    -0.064000000    -0.867000000     2.682000000
O     0.054000000     0.084000000     4.554000000
C    -0.919000000     0.938000000     4.168000000
C    -0.518000000     2.238000000     3.809000000
H     0.542000000     2.470000000     3.876000000
C    -1.461000000     3.186000000     3.381000000
O    -1.036000000     4.364000000     2.856000000
C    -2.751000000     2.762000000     3.168000000
C    -3.787000000     3.639000000     2.451000000
H    -4.799000000     3.432000000     2.804000000
C    -3.669000000     3.398000000     0.949000000
C    -4.403000000     2.345000000     0.404000000
H    -5.106000000     1.664000000     0.877000000
H    -3.477000000     4.650000000     2.724000000
C    -3.152000000     1.442000000     3.466000000
H    -4.182000000     1.160000000     3.261000000
C    -2.233000000     0.540000000     4.040000000
C    -2.788000000    -0.757000000     4.575000000
H    -3.855000000    -0.757000000     4.808000000
H    -2.244000000    -1.100000000     5.457000000
C    -2.552000000    -1.834000000     3.545000000
C    -3.640000000    -2.304000000     2.762000000
H    -4.559000000    -1.724000000     2.757000000
C    -1.355000000    -2.532000000     3.522000000
C    -1.186000000    -3.651000000     2.740000000
H    -0.203000000    -4.112000000     2.789000000
C    -2.188000000    -4.012000000     1.812000000
O    -1.911000000    -4.899000000     0.847000000
C    -1.404000000    -4.377000000    -0.384000000
C    -0.217000000    -5.083000000    -0.964000000
C     0.067000000    -4.947000000    -2.336000000
H    -0.595000000    -4.352000000    -2.961000000
C     0.672000000    -5.872000000    -0.207000000
H     0.460000000    -6.150000000     0.823000000
O    -2.463000000    -4.241000000    -1.361000000
H    -1.159000000    -3.361000000    -0.039000000
C    -3.405000000    -3.345000000     1.824000000
C    -4.388000000    -3.499000000     0.677000000
H    -5.427000000    -3.346000000     0.977000000
H    -4.349000000    -4.565000000     0.441000000
C    -4.009000000    -2.565000000    -0.487000000
C    -4.690000000    -1.358000000    -0.578000000
H    -5.283000000    -1.001000000     0.260000000
C    -3.053000000    -2.930000000    -1.442000000
C    -2.732000000    -2.122000000    -2.439000000
H    -2.045000000    -2.409000000    -3.231000000
C    -3.443000000    -0.910000000    -2.551000000
O    -2.941000000    -0.074000000    -3.536000000
C    -2.024000000     0.991000000    -3.065000000
C    -0.842000000     1.178000000    -4.009000000
C    -0.403000000     0.088000000    -4.743000000
H    -0.772000000    -0.904000000    -4.494000000
C    -0.142000000     2.405000000    -4.105000000
H    -0.561000000     3.233000000    -3.539000000
O    -2.823000000     2.177000000    -2.873000000
H    -1.645000000     0.719000000    -2.069000000
C    -4.359000000    -0.448000000    -1.609000000
C    -5.029000000     0.937000000    -1.654000000
H    -6.084000000     1.017000000    -1.383000000
H    -5.053000000     1.069000000    -2.738000000
C    -4.158000000     1.952000000    -0.935000000
C    -3.188000000     2.641000000    -1.680000000
C    -2.592000000     3.809000000    -1.128000000
H    -1.917000000     4.405000000    -1.738000000
C    -2.861000000     4.166000000     0.197000000
O    -1.937000000     4.994000000     0.808000000
C    -0.782000000     4.360000000     1.423000000
H    -0.753000000     3.315000000     1.081000000
C     0.580000000     5.065000000     1.002000000
C     1.689000000     5.105000000     1.800000000
H     1.672000000     4.700000000     2.809000000
C     0.659000000     5.689000000    -0.246000000
H    -0.133000000     5.584000000    -0.983000000
C     1.789000000     6.458000000    -0.601000000
O     1.828000000     7.184000000    -1.731000000
C     2.908000000     6.220000000     0.128000000
H     3.809000000     6.735000000    -0.195000000
C     2.868000000     5.606000000     1.330000000
O     3.994000000     5.530000000     2.111000000
C     4.231000000     4.440000000     2.897000000
C     4.448000000     3.137000000     2.396000000
H     4.659000000     2.906000000     1.355000000
C     4.223000000     4.651000000     4.273000000
H     4.067000000     5.670000000     4.616000000
C     4.479000000     3.569000000     5.152000000
H     4.550000000     3.759000000     6.220000000
C     4.648000000     2.271000000     4.672000000
H     4.859000000     1.482000000     5.390000000
C     4.636000000     2.021000000     3.302000000
O     4.900000000     0.736000000     2.928000000
C     4.121000000    -0.322000000     3.255000000
C     4.673000000    -1.651000000     3.329000000
H     5.744000000    -1.796000000     3.211000000
C     3.813000000    -2.734000000     3.546000000
O     4.406000000    -3.963000000     3.543000000
C     3.774000000    -5.084000000     3.146000000
C     3.699000000    -5.441000000     1.834000000
H     4.148000000    -4.862000000     1.030000000
C     3.106000000    -5.864000000     4.150000000
H     3.111000000    -5.612000000     5.208000000
C     2.294000000    -6.936000000     3.726000000
H     1.526000000    -7.308000000     4.399000000
C     2.238000000    -7.274000000     2.415000000
H     1.656000000    -8.103000000     2.021000000
C     2.984000000    -6.582000000     1.442000000
O     2.836000000    -6.960000000     0.126000000
C     1.851000000    -6.317000000    -0.717000000
C     2.135000000    -6.159000000    -2.072000000
H     3.092000000    -6.572000000    -2.379000000
C     1.251000000    -5.492000000    -2.883000000
O     1.565000000    -5.293000000    -4.203000000
C     0.890000000    -4.394000000    -5.060000000
C     1.286000000    -3.049000000    -5.061000000
H     1.935000000    -2.677000000    -4.272000000
C     0.022000000    -4.794000000    -6.108000000
H    -0.232000000    -5.851000000    -6.085000000
C    -0.637000000    -3.848000000    -6.865000000
H    -1.446000000    -4.107000000    -7.543000000
C    -0.181000000    -2.552000000    -6.869000000
H    -0.664000000    -1.824000000    -7.516000000
C     0.856000000    -2.150000000    -6.078000000
O     1.371000000    -0.840000000    -6.135000000
C     0.756000000     0.211000000    -5.486000000
C     1.447000000     1.406000000    -5.599000000
H     2.320000000     1.414000000    -6.247000000
C     0.977000000     2.524000000    -4.924000000
O     1.783000000     3.678000000    -5.005000000
C     1.454000000     4.883000000    -4.551000000
C     0.561000000     5.639000000    -5.320000000
H     0.232000000     5.256000000    -6.283000000
C     0.113000000     6.879000000    -4.869000000
H    -0.498000000     7.518000000    -5.501000000
C     0.505000000     7.351000000    -3.629000000
H     0.024000000     8.265000000    -3.290000000
C     1.490000000     6.652000000    -2.931000000
C     1.930000000     5.404000000    -3.367000000
H     2.705000000     4.864000000    -2.828000000
C     2.225000000     0.373000000    -2.280000000
H     2.334000000    -0.243000000    -3.168000000
C     1.352000000    -0.150000000    -1.282000000
H     0.766000000    -1.063000000    -1.343000000
C     1.017000000     0.654000000    -0.185000000
H     0.358000000     0.228000000     0.575000000
C     1.620000000     1.892000000     0.002000000
H     1.365000000     2.478000000     0.882000000
C     2.643000000     2.291000000    -0.830000000
H     3.183000000     3.195000000    -0.560000000
C     2.936000000     1.562000000    -1.990000000
C     3.979000000     2.074000000    -2.970000000
O     4.589000000     3.113000000    -2.649000000
O     4.276000000     1.354000000    -3.911000000
O     3.000000000     3.848000000    -8.800000000
H     3.644000000     3.568000000    -8.149000000
H     3.469000000     4.483000000    -9.342000000
O     9.157000000     2.447000000    -0.285000000
H     9.200000000     2.017000000    -1.140000000
H     9.957000000     2.172000000     0.162000000
O     6.919000000     6.706000000    -0.763000000
H     7.846000000     6.488000000    -0.665000000
H     6.462000000     5.875000000    -0.636000000
O     7.396000000     0.041000000    -4.377000000
H     7.090000000     0.278000000    -5.252000000
H     6.652000000    -0.410000000    -3.977000000
O     6.526000000    -0.645000000     0.089000000
H     5.758000000    -0.647000000     0.661000000
H     6.669000000     0.278000000    -0.118000000
O     5.346000000     0.763000000    -6.344000000
H     4.862000000     0.724000000    -5.519000000
H     5.510000000     1.697000000    -6.482000000
O     9.505000000     1.069000000    -2.656000000
H     9.132000000     0.334000000    -3.142000000
H    10.277000000     1.323000000    -3.161000000
O     5.045000000    -1.087000000    -3.765000000
H     4.898000000    -1.295000000    -4.688000000
H     4.632000000    -0.232000000    -3.644000000
O     5.129000000     1.425000000    -9.181000000
H     4.662000000     0.912000000    -9.841000000
H     4.647000000     1.265000000    -8.369000000
O     7.524000000     2.967000000    -2.991000000
H     6.609000000     2.886000000    -2.721000000
H     7.815000000     2.066000000    -3.128000000
O     5.039000000    -4.040000000    -1.565000000
H     5.537000000    -3.733000000    -0.807000000
H     4.623000000    -3.252000000    -1.913000000
O     7.916000000     4.171000000    -5.496000000
H     8.102000000     5.062000000    -5.200000000
H     7.767000000     3.677000000    -4.690000000
O     4.741000000     7.757000000    -3.027000000
H     3.789000000     7.664000000    -3.007000000
H     5.061000000     6.887000000    -3.266000000
O     6.858000000     1.904000000     0.989000000
H     6.779000000     2.442000000     1.777000000
H     7.695000000     2.165000000     0.605000000
O     5.654000000     4.356000000    -0.469000000
H     6.028000000     3.535000000    -0.149000000
H     5.257000000     4.127000000    -1.309000000
O     5.336000000     5.307000000    -4.128000000
H     4.906000000     4.579000000    -3.680000000
H     6.086000000     4.907000000    -4.569000000
O     4.397000000     3.281000000    -6.412000000
H     4.227000000     4.178000000    -6.123000000
H     4.275000000     2.750000000    -5.625000000
O     9.348000000     5.091000000    -2.093000000
H     8.673000000     4.417000000    -2.176000000
H    10.168000000     4.601000000    -2.027000000
O     4.654000000    -2.621000000    -6.982000000
H     4.460000000    -3.215000000    -7.707000000
H     3.936000000    -1.988000000    -6.992000000
