215
-1481.06566
C     1.887000000    -2.234000000     4.820000000
H     1.217000000    -3.050000000     4.565000000
C     1.316000000    -0.950000000     4.913000000
C     2.147000000     0.130000000     5.223000000
H     1.836000000     1.161000000     5.074000000
C    -0.127000000    -0.672000000     4.430000000
O    -0.969000000    -1.815000000     4.793000000
H    -0.056000000    -0.521000000     3.343000000
O    -0.630000000     0.551000000     5.028000000
C    -1.523000000     1.283000000     4.255000000
C    -0.967000000     2.452000000     3.688000000
H     0.031000000     2.795000000     3.948000000
C    -1.706000000     3.260000000     2.849000000
O    -1.053000000     4.310000000     2.269000000
C    -3.031000000     2.917000000     2.532000000
C    -3.794000000     3.750000000     1.510000000
H    -4.836000000     3.682000000     1.831000000
C    -3.468000000     3.317000000     0.027000000
C    -4.245000000     2.310000000    -0.545000000
H    -5.073000000     1.874000000     0.008000000
H    -3.477000000     4.769000000     1.743000000
C    -3.601000000     1.757000000     3.156000000
H    -4.625000000     1.487000000     2.912000000
C    -2.837000000     0.902000000     4.007000000
C    -3.386000000    -0.317000000     4.614000000
H    -4.476000000    -0.338000000     4.673000000
H    -2.988000000    -0.359000000     5.630000000
C    -3.110000000    -1.573000000     3.774000000
C    -3.947000000    -1.838000000     2.658000000
H    -4.825000000    -1.207000000     2.549000000
C    -1.896000000    -2.220000000     3.862000000
C    -1.495000000    -3.194000000     2.900000000
H    -0.488000000    -3.602000000     2.953000000
C    -2.343000000    -3.523000000     1.881000000
O    -1.764000000    -4.359000000     0.902000000
C    -1.303000000    -3.794000000    -0.408000000
C     0.040000000    -4.444000000    -0.843000000
C     0.380000000    -4.388000000    -2.154000000
H    -0.279000000    -4.003000000    -2.928000000
C     0.973000000    -4.788000000     0.145000000
H     0.813000000    -4.646000000     1.210000000
O    -2.347000000    -3.988000000    -1.341000000
H    -1.102000000    -2.734000000    -0.193000000
C    -3.562000000    -2.806000000     1.760000000
C    -4.383000000    -3.124000000     0.580000000
H    -5.431000000    -2.915000000     0.808000000
H    -4.332000000    -4.196000000     0.380000000
C    -3.986000000    -2.358000000    -0.702000000
C    -4.746000000    -1.209000000    -1.053000000
H    -5.428000000    -0.708000000    -0.371000000
C    -3.046000000    -2.884000000    -1.622000000
C    -2.773000000    -2.242000000    -2.828000000
H    -2.124000000    -2.706000000    -3.565000000
C    -3.389000000    -1.002000000    -3.059000000
O    -2.972000000    -0.237000000    -4.117000000
C    -2.014000000     0.796000000    -3.866000000
C    -0.927000000     0.830000000    -4.963000000
C    -0.499000000    -0.399000000    -5.590000000
H    -1.067000000    -1.322000000    -5.515000000
C    -0.201000000     2.013000000    -5.136000000
H    -0.481000000     2.952000000    -4.666000000
O    -2.704000000     2.060000000    -3.852000000
H    -1.568000000     0.798000000    -2.860000000
C    -4.407000000    -0.441000000    -2.193000000
C    -5.014000000     0.947000000    -2.456000000
H    -6.045000000     0.940000000    -2.095000000
H    -5.111000000     1.006000000    -3.542000000
C    -4.081000000     1.931000000    -1.862000000
C    -2.997000000     2.500000000    -2.576000000
C    -2.180000000     3.507000000    -1.961000000
H    -1.287000000     3.916000000    -2.429000000
C    -2.395000000     3.933000000    -0.674000000
O    -1.532000000     4.877000000    -0.028000000
C    -0.594000000     4.272000000     0.867000000
H    -0.580000000     3.192000000     0.658000000
C     0.831000000     4.675000000     0.592000000
C     1.873000000     4.233000000     1.456000000
H     1.648000000     3.703000000     2.378000000
C     1.226000000     5.280000000    -0.606000000
H     0.506000000     5.704000000    -1.300000000
C     2.624000000     5.355000000    -0.947000000
O     3.005000000     5.721000000    -2.207000000
C     3.558000000     4.987000000    -0.074000000
H     4.618000000     5.092000000    -0.288000000
C     3.240000000     4.479000000     1.193000000
O     4.334000000     4.125000000     2.036000000
C     4.178000000     3.910000000     3.392000000
C     4.314000000     2.544000000     3.812000000
H     4.555000000     1.745000000     3.115000000
C     3.883000000     4.893000000     4.300000000
H     3.798000000     5.930000000     3.988000000
C     3.739000000     4.590000000     5.648000000
H     3.543000000     5.345000000     6.405000000
C     3.857000000     3.260000000     6.082000000
H     3.725000000     3.025000000     7.135000000
C     4.116000000     2.260000000     5.159000000
O     4.444000000     0.997000000     5.649000000
C     3.559000000    -0.072000000     5.479000000
C     4.055000000    -1.344000000     5.417000000
H     5.130000000    -1.479000000     5.496000000
C     3.256000000    -2.417000000     5.014000000
O     3.857000000    -3.666000000     5.007000000
C     3.412000000    -4.760000000     4.263000000
C     3.482000000    -4.699000000     2.867000000
H     3.792000000    -3.762000000     2.411000000
C     2.926000000    -5.894000000     4.943000000
H     2.874000000    -5.962000000     6.027000000
C     2.385000000    -6.904000000     4.107000000
H     1.859000000    -7.718000000     4.598000000
C     2.481000000    -6.881000000     2.706000000
H     1.804000000    -7.556000000     2.189000000
C     2.938000000    -5.708000000     2.095000000
O     3.165000000    -5.664000000     0.715000000
C     2.204000000    -5.331000000    -0.217000000
C     2.586000000    -5.357000000    -1.544000000
H     3.573000000    -5.707000000    -1.835000000
C     1.667000000    -4.779000000    -2.527000000
O     2.120000000    -4.808000000    -3.825000000
C     1.334000000    -4.479000000    -4.929000000
C     1.590000000    -3.247000000    -5.552000000
H     2.276000000    -2.511000000    -5.141000000
C     0.332000000    -5.288000000    -5.419000000
H     0.145000000    -6.256000000    -4.961000000
C    -0.335000000    -4.931000000    -6.575000000
H    -1.102000000    -5.643000000    -6.867000000
C    -0.125000000    -3.714000000    -7.149000000
H    -0.670000000    -3.327000000    -8.006000000
C     0.806000000    -2.839000000    -6.623000000
O     0.954000000    -1.529000000    -7.049000000
C     0.603000000    -0.333000000    -6.427000000
C     1.352000000     0.800000000    -6.615000000
H     2.270000000     0.824000000    -7.196000000
C     0.945000000     1.955000000    -5.982000000
O     1.789000000     3.032000000    -5.953000000
C     1.623000000     4.189000000    -5.277000000
C     1.145000000     5.293000000    -5.948000000
H     0.992000000     5.142000000    -7.013000000
C     1.182000000     6.479000000    -5.306000000
H     0.745000000     7.356000000    -5.777000000
C     1.681000000     6.662000000    -3.998000000
H     1.590000000     7.635000000    -3.522000000
C     2.263000000     5.587000000    -3.354000000
C     2.209000000     4.303000000    -3.956000000
H     2.665000000     3.455000000    -3.452000000
C     1.561000000    -0.163000000    -2.911000000
H     1.625000000    -0.804000000    -3.786000000
C     0.475000000    -0.294000000    -2.013000000
H    -0.273000000    -1.030000000    -2.297000000
C     0.357000000     0.464000000    -0.890000000
H    -0.573000000     0.483000000    -0.256000000
C     1.387000000     1.313000000    -0.649000000
H     1.425000000     1.849000000     0.295000000
C     2.524000000     1.486000000    -1.474000000
H     3.311000000     2.184000000    -1.197000000
C     2.593000000     0.708000000    -2.613000000
C     3.820000000     0.998000000    -3.481000000
O     4.937000000     1.364000000    -3.048000000
O     3.779000000     0.745000000    -4.663000000
O     3.920000000     0.126000000    -9.238000000
H     4.282000000     0.932000000    -8.871000000
H     4.044000000    -0.528000000    -8.550000000
O     7.594000000    -3.066000000    -3.303000000
H     7.865000000    -3.151000000    -2.389000000
H     8.398000000    -2.841000000    -3.772000000
O     5.247000000     5.480000000    -7.781000000
H     5.314000000     5.320000000    -6.840000000
H     5.713000000     4.747000000    -8.183000000
O     6.190000000     0.398000000    -0.779000000
H     6.077000000    -0.541000000    -0.923000000
H     5.924000000     0.801000000    -1.605000000
O     4.103000000    -0.928000000    -6.778000000
H     4.951000000    -1.117000000    -6.376000000
H     3.666000000    -0.348000000    -6.155000000
O     3.786000000    -3.189000000    -8.568000000
H     3.002000000    -3.511000000    -9.014000000
H     3.458000000    -2.545000000    -7.941000000
O     9.262000000     2.721000000    -1.078000000
H     9.296000000     1.919000000    -0.558000000
H     9.267000000     2.418000000    -1.986000000
O     4.220000000    -2.402000000    -1.305000000
H     4.440000000    -2.269000000    -2.227000000
H     3.997000000    -3.331000000    -1.244000000
O     6.221000000     3.053000000    -8.712000000
H     6.849000000     2.348000000    -8.871000000
H     5.779000000     2.802000000    -7.901000000
O     6.225000000    -0.940000000    -4.868000000
H     5.524000000    -0.344000000    -4.604000000
H     6.122000000    -1.700000000    -4.296000000
O     3.243000000    -0.879000000     0.871000000
H     2.570000000    -0.377000000     0.410000000
H     3.669000000    -1.394000000     0.185000000
O     5.858000000    -0.699000000     2.261000000
H     5.822000000     0.132000000     1.788000000
H     4.942000000    -0.964000000     2.349000000
O     5.804000000     5.267000000    -5.130000000
H     5.937000000     5.888000000    -4.414000000
H     5.712000000     4.418000000    -4.696000000
O     8.294000000    -1.704000000    -6.446000000
H     9.087000000    -1.175000000    -6.359000000
H     7.697000000    -1.353000000    -5.785000000
O     6.882000000     1.776000000     1.382000000
H     6.847000000     1.274000000     0.568000000
H     7.248000000     2.623000000     1.127000000
O     8.775000000     1.739000000    -3.886000000
H     8.460000000     0.904000000    -3.540000000
H     7.981000000     2.207000000    -4.142000000
O     6.598000000     3.253000000    -3.088000000
H     6.230000000     3.696000000    -2.324000000
H     5.982000000     2.544000000    -3.274000000
O     4.766000000     2.482000000    -6.511000000
H     3.912000000     2.826000000    -6.770000000
H     4.565000000     1.792000000    -5.878000000
O     4.486000000    -3.199000000    -4.234000000
H     3.888000000    -3.891000000    -3.953000000
H     5.069000000    -3.626000000    -4.862000000
