215
-1486.49789
C     1.178000000    -2.159000000     4.502000000
H     0.577000000    -2.883000000     3.958000000
C     0.602000000    -0.910000000     4.835000000
C     1.459000000     0.052000000     5.410000000
H     1.079000000     1.032000000     5.686000000
C    -0.841000000    -0.627000000     4.295000000
O    -1.732000000    -1.781000000     4.439000000
H    -0.693000000    -0.317000000     3.249000000
O    -1.420000000     0.592000000     4.897000000
C    -1.932000000     1.521000000     4.000000000
C    -1.157000000     2.556000000     3.476000000
H    -0.107000000     2.655000000     3.742000000
C    -1.723000000     3.401000000     2.571000000
O    -0.947000000     4.335000000     1.991000000
C    -2.987000000     3.133000000     2.046000000
C    -3.513000000     3.974000000     0.877000000
H    -4.605000000     3.969000000     0.859000000
C    -3.027000000     3.540000000    -0.514000000
C    -3.857000000     2.768000000    -1.335000000
H    -4.770000000     2.401000000    -0.872000000
H    -3.304000000     5.033000000     1.039000000
C    -3.724000000     1.994000000     2.486000000
H    -4.693000000     1.803000000     2.032000000
C    -3.206000000     1.240000000     3.529000000
C    -3.946000000     0.024000000     4.038000000
H    -5.023000000     0.184000000     3.961000000
H    -3.723000000    -0.201000000     5.083000000
C    -3.626000000    -1.128000000     3.118000000
C    -4.288000000    -1.329000000     1.886000000
H    -5.054000000    -0.631000000     1.559000000
C    -2.575000000    -2.040000000     3.422000000
C    -2.211000000    -3.085000000     2.506000000
H    -1.311000000    -3.659000000     2.710000000
C    -2.929000000    -3.248000000     1.303000000
O    -2.400000000    -4.158000000     0.425000000
C    -1.712000000    -3.663000000    -0.778000000
C    -0.383000000    -4.291000000    -1.054000000
C     0.209000000    -4.347000000    -2.285000000
H    -0.145000000    -3.733000000    -3.109000000
C     0.285000000    -4.915000000    -0.002000000
H    -0.102000000    -4.865000000     1.012000000
O    -2.695000000    -3.720000000    -1.873000000
H    -1.508000000    -2.599000000    -0.585000000
C    -3.956000000    -2.325000000     1.002000000
C    -4.765000000    -2.479000000    -0.312000000
H    -5.779000000    -2.133000000    -0.100000000
H    -4.834000000    -3.555000000    -0.487000000
C    -4.178000000    -1.888000000    -1.579000000
C    -4.504000000    -0.550000000    -2.007000000
H    -5.288000000     0.059000000    -1.565000000
C    -3.178000000    -2.548000000    -2.355000000
C    -2.485000000    -1.922000000    -3.414000000
H    -1.643000000    -2.359000000    -3.945000000
C    -2.882000000    -0.654000000    -3.809000000
O    -2.201000000     0.064000000    -4.720000000
C    -1.178000000     1.004000000    -4.286000000
C     0.141000000     0.906000000    -5.095000000
C     0.357000000    -0.105000000    -6.028000000
H    -0.500000000    -0.724000000    -6.282000000
C     1.264000000     1.654000000    -4.672000000
H     1.073000000     2.408000000    -3.913000000
O    -1.786000000     2.365000000    -4.273000000
H    -0.808000000     0.848000000    -3.262000000
C    -3.952000000     0.020000000    -3.162000000
C    -4.314000000     1.442000000    -3.430000000
H    -5.389000000     1.591000000    -3.307000000
H    -4.334000000     1.632000000    -4.505000000
C    -3.491000000     2.374000000    -2.626000000
C    -2.231000000     2.775000000    -3.087000000
C    -1.394000000     3.508000000    -2.312000000
H    -0.418000000     3.821000000    -2.676000000
C    -1.767000000     3.911000000    -1.017000000
O    -0.867000000     4.634000000    -0.279000000
C    -0.215000000     3.930000000     0.862000000
H    -0.301000000     2.849000000     0.676000000
C     1.235000000     4.186000000     1.018000000
C     1.862000000     4.180000000     2.299000000
H     1.200000000     3.912000000     3.119000000
C     1.942000000     4.539000000    -0.109000000
H     1.423000000     4.597000000    -1.063000000
C     3.278000000     4.769000000    -0.031000000
O     3.993000000     5.226000000    -1.121000000
C     3.918000000     4.671000000     1.195000000
H     4.948000000     5.006000000     1.282000000
C     3.241000000     4.380000000     2.398000000
O     3.925000000     4.569000000     3.570000000
C     3.497000000     4.003000000     4.726000000
C     3.714000000     2.663000000     4.953000000
H     4.040000000     1.980000000     4.173000000
C     2.936000000     4.843000000     5.648000000
H     2.699000000     5.875000000     5.403000000
C     2.584000000     4.328000000     6.906000000
H     2.008000000     4.936000000     7.599000000
C     2.774000000     2.949000000     7.214000000
H     2.288000000     2.486000000     8.068000000
C     3.319000000     2.089000000     6.184000000
O     3.484000000     0.765000000     6.365000000
C     2.721000000    -0.275000000     5.837000000
C     3.222000000    -1.522000000     5.544000000
H     4.201000000    -1.743000000     5.960000000
C     2.462000000    -2.458000000     4.918000000
O     2.992000000    -3.715000000     4.762000000
C     2.241000000    -4.717000000     4.143000000
C     2.384000000    -4.973000000     2.761000000
H     3.045000000    -4.323000000     2.194000000
C     1.442000000    -5.663000000     4.904000000
H     1.394000000    -5.522000000     5.981000000
C     0.874000000    -6.760000000     4.283000000
H     0.552000000    -7.508000000     5.002000000
C     1.043000000    -6.999000000     2.921000000
H     0.642000000    -7.861000000     2.394000000
C     1.772000000    -6.078000000     2.160000000
O     1.907000000    -6.414000000     0.830000000
C     1.435000000    -5.621000000    -0.219000000
C     2.009000000    -5.742000000    -1.442000000
H     2.880000000    -6.390000000    -1.473000000
C     1.404000000    -5.063000000    -2.530000000
O     2.004000000    -5.032000000    -3.749000000
C     1.414000000    -4.512000000    -4.882000000
C     1.831000000    -3.273000000    -5.323000000
H     2.647000000    -2.729000000    -4.854000000
C     0.398000000    -5.235000000    -5.557000000
H     0.265000000    -6.290000000    -5.330000000
C    -0.121000000    -4.673000000    -6.718000000
H    -0.844000000    -5.225000000    -7.313000000
C     0.420000000    -3.495000000    -7.259000000
H     0.121000000    -3.082000000    -8.219000000
C     1.370000000    -2.775000000    -6.540000000
O     1.872000000    -1.613000000    -7.142000000
C     1.653000000    -0.378000000    -6.503000000
C     2.758000000     0.453000000    -6.225000000
H     3.759000000     0.208000000    -6.572000000
C     2.527000000     1.493000000    -5.268000000
O     3.557000000     2.237000000    -4.844000000
C     3.335000000     3.500000000    -4.304000000
C     2.808000000     4.535000000    -5.061000000
H     2.432000000     4.370000000    -6.068000000
C     2.754000000     5.852000000    -4.592000000
H     2.399000000     6.659000000    -5.226000000
C     3.192000000     6.067000000    -3.307000000
H     3.210000000     7.062000000    -2.869000000
C     3.601000000     5.061000000    -2.444000000
C     3.721000000     3.742000000    -2.929000000
H     4.223000000     3.040000000    -2.268000000
C     2.289000000    -0.349000000    -1.785000000
H     2.832000000    -0.613000000    -2.688000000
C     0.916000000    -0.696000000    -1.735000000
H     0.436000000    -1.137000000    -2.604000000
C     0.114000000    -0.272000000    -0.652000000
H    -1.002000000    -0.414000000    -0.545000000
C     0.742000000     0.480000000     0.350000000
H     0.180000000     0.926000000     1.166000000
C     2.103000000     0.865000000     0.318000000
H     2.517000000     1.419000000     1.157000000
C     2.876000000     0.463000000    -0.790000000
C     4.373000000     0.666000000    -0.890000000
O     4.982000000     1.280000000    -0.037000000
O     4.993000000     0.314000000    -1.836000000
O    10.021000000    -1.081000000    -1.717000000
H     9.702000000    -1.978000000    -1.815000000
H     9.233000000    -0.541000000    -1.758000000
O     8.052000000    -2.900000000    -3.210000000
H     8.508000000    -3.732000000    -3.338000000
H     7.330000000    -3.110000000    -2.618000000
O     7.840000000     0.797000000     3.862000000
H     8.529000000     1.006000000     3.231000000
H     7.142000000     1.423000000     3.670000000
O     7.814000000     0.142000000    -2.139000000
H     7.594000000     1.067000000    -2.033000000
H     6.975000000    -0.287000000    -2.306000000
O     3.922000000    -3.355000000    -1.546000000
H     3.188000000    -3.862000000    -1.893000000
H     3.522000000    -2.752000000    -0.920000000
O     5.362000000    -3.161000000     2.605000000
H     6.026000000    -2.836000000     1.998000000
H     5.162000000    -4.043000000     2.292000000
O     6.580000000     1.593000000    -5.028000000
H     5.767000000     1.541000000    -4.526000000
H     6.925000000     0.700000000    -5.019000000
O     6.665000000     5.929000000    -1.626000000
H     5.798000000     6.007000000    -1.227000000
H     6.699000000     5.030000000    -1.952000000
O     6.719000000    -3.161000000    -0.785000000
H     5.788000000    -3.350000000    -0.896000000
H     6.741000000    -2.362000000    -0.259000000
O     8.049000000    -0.822000000    -5.113000000
H     8.684000000    -1.191000000    -5.726000000
H     8.184000000    -1.314000000    -4.303000000
O     9.717000000    -0.002000000     0.930000000
H    10.543000000    -0.165000000     1.386000000
H     9.826000000    -0.428000000     0.080000000
O     7.014000000     2.928000000    -1.280000000
H     7.624000000     2.679000000    -0.585000000
H     6.177000000     2.548000000    -1.011000000
O     8.739000000     2.642000000     1.333000000
H     9.429000000     3.085000000     1.827000000
H     9.174000000     1.885000000     0.941000000
O     5.079000000    -1.477000000    -3.558000000
H     4.993000000    -2.296000000    -3.070000000
H     5.121000000    -0.799000000    -2.883000000
O     5.942000000     2.214000000     2.214000000
H     5.508000000     1.822000000     1.457000000
H     6.760000000     2.568000000     1.865000000
O     3.393000000    -2.148000000     0.715000000
H     3.852000000    -2.368000000     1.526000000
H     2.958000000    -1.316000000     0.903000000
O     7.596000000     3.663000000    -3.792000000
H     7.256000000     2.909000000    -4.273000000
H     7.511000000     3.418000000    -2.871000000
O     6.419000000    -1.010000000     0.857000000
H     7.176000000    -0.631000000     1.303000000
H     6.006000000    -0.268000000     0.415000000
O     5.809000000    -1.795000000    -6.156000000
H     5.274000000    -1.693000000    -5.369000000
H     6.673000000    -1.471000000    -5.902000000
