215
-1461.70426
C     1.402000000    -2.788000000     3.902000000
H     0.775000000    -3.481000000     3.347000000
C     0.973000000    -1.475000000     4.328000000
C     1.842000000    -0.621000000     4.965000000
H     1.533000000     0.394000000     5.202000000
C    -0.422000000    -1.051000000     3.971000000
O    -1.385000000    -2.110000000     4.019000000
H    -0.560000000    -0.673000000     2.948000000
O    -0.819000000     0.022000000     4.874000000
C    -1.401000000     1.083000000     4.286000000
C    -0.588000000     2.161000000     3.983000000
H     0.416000000     2.257000000     4.389000000
C    -1.117000000     3.219000000     3.275000000
O    -0.243000000     4.218000000     2.840000000
C    -2.453000000     3.270000000     2.915000000
C    -2.923000000     4.417000000     1.937000000
H    -4.014000000     4.421000000     1.984000000
C    -2.703000000     4.136000000     0.454000000
C    -3.711000000     3.484000000    -0.271000000
H    -4.727000000     3.259000000     0.044000000
H    -2.565000000     5.412000000     2.208000000
C    -3.233000000     2.163000000     3.209000000
H    -4.253000000     2.130000000     2.832000000
C    -2.739000000     1.111000000     3.921000000
C    -3.617000000    -0.167000000     4.153000000
H    -4.639000000     0.158000000     3.948000000
H    -3.512000000    -0.538000000     5.175000000
C    -3.378000000    -1.212000000     3.060000000
C    -4.268000000    -1.254000000     1.976000000
H    -4.951000000    -0.412000000     1.898000000
C    -2.306000000    -2.191000000     3.069000000
C    -2.133000000    -3.201000000     2.117000000
H    -1.397000000    -3.987000000     2.270000000
C    -3.043000000    -3.173000000     1.054000000
O    -2.857000000    -4.059000000     0.046000000
C    -2.237000000    -3.529000000    -1.196000000
C    -1.089000000    -4.461000000    -1.604000000
C    -0.806000000    -4.611000000    -2.945000000
H    -1.550000000    -4.187000000    -3.615000000
C    -0.263000000    -5.139000000    -0.725000000
H    -0.457000000    -5.066000000     0.342000000
O    -3.224000000    -3.319000000    -2.235000000
H    -1.755000000    -2.545000000    -1.105000000
C    -4.124000000    -2.231000000     1.018000000
C    -5.044000000    -2.234000000    -0.192000000
H    -5.959000000    -1.780000000     0.195000000
H    -5.320000000    -3.267000000    -0.415000000
C    -4.538000000    -1.393000000    -1.407000000
C    -4.806000000    -0.028000000    -1.483000000
H    -5.414000000     0.501000000    -0.754000000
C    -3.684000000    -1.998000000    -2.311000000
C    -3.195000000    -1.240000000    -3.373000000
H    -2.803000000    -1.779000000    -4.232000000
C    -3.386000000     0.172000000    -3.371000000
O    -2.703000000     0.853000000    -4.288000000
C    -1.491000000     1.447000000    -3.696000000
C    -0.274000000     1.322000000    -4.580000000
C    -0.138000000     0.165000000    -5.361000000
H    -0.933000000    -0.576000000    -5.384000000
C     0.720000000     2.269000000    -4.616000000
H     0.719000000     3.130000000    -3.952000000
O    -1.738000000     2.771000000    -3.335000000
H    -1.234000000     0.894000000    -2.780000000
C    -4.188000000     0.766000000    -2.427000000
C    -4.425000000     2.234000000    -2.370000000
H    -5.396000000     2.285000000    -1.873000000
H    -4.571000000     2.744000000    -3.325000000
C    -3.392000000     2.989000000    -1.596000000
C    -2.084000000     3.151000000    -2.110000000
C    -1.089000000     3.921000000    -1.389000000
H    -0.060000000     3.961000000    -1.738000000
C    -1.435000000     4.383000000    -0.139000000
O    -0.489000000     4.979000000     0.639000000
C     0.252000000     4.033000000     1.476000000
H     0.116000000     2.988000000     1.164000000
C     1.778000000     4.264000000     1.406000000
C     2.543000000     4.042000000     2.532000000
H     2.196000000     3.913000000     3.554000000
C     2.398000000     4.460000000     0.170000000
H     1.791000000     4.590000000    -0.722000000
C     3.781000000     4.393000000     0.076000000
O     4.478000000     4.561000000    -1.077000000
C     4.591000000     4.270000000     1.261000000
H     5.677000000     4.313000000     1.266000000
C     3.925000000     4.000000000     2.457000000
O     4.692000000     3.973000000     3.561000000
C     4.497000000     3.260000000     4.772000000
C     4.068000000     1.938000000     4.716000000
H     3.841000000     1.417000000     3.789000000
C     4.773000000     3.871000000     5.942000000
H     5.036000000     4.923000000     6.020000000
C     4.631000000     3.189000000     7.135000000
H     4.782000000     3.762000000     8.046000000
C     4.490000000     1.817000000     7.113000000
H     4.690000000     1.238000000     8.011000000
C     4.119000000     1.177000000     5.904000000
O     4.051000000    -0.206000000     5.863000000
C     3.150000000    -0.946000000     5.216000000
C     3.525000000    -2.234000000     4.783000000
H     4.503000000    -2.682000000     4.941000000
C     2.718000000    -3.147000000     4.191000000
O     3.225000000    -4.385000000     3.775000000
C     2.434000000    -5.304000000     3.175000000
C     2.375000000    -5.282000000     1.786000000
H     3.063000000    -4.656000000     1.224000000
C     1.586000000    -6.076000000     3.910000000
H     1.541000000    -5.998000000     4.993000000
C     0.660000000    -6.885000000     3.181000000
H    -0.099000000    -7.400000000     3.764000000
C     0.738000000    -6.993000000     1.841000000
H     0.101000000    -7.709000000     1.328000000
C     1.595000000    -6.217000000     1.065000000
O     1.741000000    -6.428000000    -0.321000000
C     0.839000000    -5.892000000    -1.171000000
C     1.115000000    -6.042000000    -2.506000000
H     1.941000000    -6.682000000    -2.805000000
C     0.341000000    -5.311000000    -3.355000000
O     0.582000000    -5.520000000    -4.743000000
C     0.190000000    -4.589000000    -5.700000000
C     0.795000000    -3.317000000    -5.674000000
H     1.614000000    -3.160000000    -4.978000000
C    -0.781000000    -4.852000000    -6.637000000
H    -1.186000000    -5.847000000    -6.801000000
C    -1.208000000    -3.818000000    -7.527000000
H    -1.918000000    -4.050000000    -8.317000000
C    -0.570000000    -2.560000000    -7.529000000
H    -0.809000000    -1.760000000    -8.224000000
C     0.533000000    -2.370000000    -6.681000000
O     1.257000000    -1.202000000    -6.775000000
C     0.997000000    -0.014000000    -6.146000000
C     2.057000000     0.912000000    -6.135000000
H     2.985000000     0.752000000    -6.678000000
C     1.849000000     2.053000000    -5.373000000
O     2.826000000     3.015000000    -5.401000000
C     2.984000000     3.985000000    -4.469000000
C     2.306000000     5.176000000    -4.604000000
H     1.844000000     5.359000000    -5.571000000
C     2.372000000     6.210000000    -3.605000000
H     1.761000000     7.107000000    -3.665000000
C     3.138000000     5.989000000    -2.495000000
H     3.202000000     6.691000000    -1.667000000
C     3.786000000     4.743000000    -2.288000000
C     3.706000000     3.746000000    -3.283000000
H     4.340000000     2.884000000    -3.090000000
C     2.547000000     0.321000000    -2.123000000
H     2.521000000     0.256000000    -3.207000000
C     1.318000000     0.215000000    -1.453000000
H     0.382000000     0.014000000    -1.968000000
C     1.194000000     0.465000000    -0.055000000
H     0.202000000     0.328000000     0.378000000
C     2.333000000     0.608000000     0.674000000
H     2.290000000     0.733000000     1.753000000
C     3.589000000     0.672000000     0.022000000
H     4.479000000     0.795000000     0.633000000
C     3.717000000     0.424000000    -1.386000000
C     5.080000000     0.465000000    -1.906000000
O     6.056000000     0.699000000    -1.175000000
O     5.263000000     0.054000000    -3.037000000
O     8.937000000     0.105000000    -0.686000000
H     8.196000000     0.416000000    -0.166000000
H     8.638000000     0.172000000    -1.593000000
O     6.657000000    -2.328000000    -1.512000000
H     6.134000000    -1.610000000    -1.869000000
H     7.453000000    -2.331000000    -2.043000000
O     4.261000000    -4.187000000    -3.667000000
H     3.921000000    -4.549000000    -4.485000000
H     4.431000000    -4.954000000    -3.119000000
O     7.806000000     0.695000000    -3.653000000
H     6.872000000     0.631000000    -3.454000000
H     7.846000000     1.234000000    -4.443000000
O     6.395000000    -0.708000000     2.768000000
H     5.903000000    -1.421000000     2.362000000
H     6.196000000     0.057000000     2.228000000
O     4.419000000    -1.895000000    -7.094000000
H     4.932000000    -1.992000000    -6.291000000
H     4.580000000    -0.993000000    -7.373000000
O     4.790000000    -2.379000000     1.251000000
H     5.208000000    -2.370000000     0.390000000
H     3.855000000    -2.451000000     1.063000000
O     7.031000000     3.138000000    -2.156000000
H     6.394000000     3.511000000    -1.548000000
H     6.907000000     2.191000000    -2.083000000
O     6.274000000     0.522000000    -6.783000000
H     6.671000000    -0.339000000    -6.912000000
H     7.017000000     1.117000000    -6.687000000
O     7.287000000    -4.582000000    -4.658000000
H     6.550000000    -4.113000000    -4.267000000
H     7.829000000    -3.894000000    -5.047000000
O     8.416000000     3.827000000     0.735000000
H     8.674000000     4.271000000    -0.072000000
H     8.977000000     4.210000000     1.410000000
O     5.727000000    -2.034000000    -4.554000000
H     5.009000000    -2.547000000    -4.183000000
H     5.604000000    -1.156000000    -4.194000000
O     6.850000000     1.747000000     1.096000000
H     6.556000000     1.491000000     0.222000000
H     7.262000000     2.601000000     0.970000000
O     2.641000000    -2.875000000    -0.530000000
H     3.014000000    -2.691000000    -1.393000000
H     2.452000000    -2.012000000    -0.162000000
O     9.765000000     3.016000000    -2.446000000
H     9.741000000     2.111000000    -2.756000000
H     8.846000000     3.248000000    -2.311000000
O     8.525000000    -2.805000000     0.916000000
H     9.233000000    -2.884000000     0.278000000
H     7.990000000    -2.080000000     0.592000000
O     8.811000000    -1.749000000    -3.203000000
H     9.606000000    -1.829000000    -3.729000000
H     8.383000000    -0.960000000    -3.535000000
O     7.851000000     2.738000000    -5.950000000
H     6.929000000     2.968000000    -6.067000000
H     8.331000000     3.448000000    -6.376000000
O     7.795000000     5.387000000    -3.520000000
H     8.733000000     5.196000000    -3.522000000
H     7.386000000     4.574000000    -3.225000000
