215
-1468.33227
C     0.753000000    -3.944000000     3.778000000
H    -0.064000000    -4.498000000     3.322000000
C     0.639000000    -2.560000000     4.138000000
C     1.791000000    -1.985000000     4.651000000
H     1.763000000    -0.929000000     4.907000000
C    -0.546000000    -1.732000000     3.895000000
O    -1.660000000    -2.574000000     3.855000000
H    -0.374000000    -1.322000000     2.889000000
O    -0.743000000    -0.716000000     4.869000000
C    -1.132000000     0.527000000     4.447000000
C    -0.121000000     1.505000000     4.214000000
H     0.889000000     1.240000000     4.514000000
C    -0.444000000     2.713000000     3.588000000
O     0.609000000     3.582000000     3.297000000
C    -1.777000000     3.058000000     3.293000000
C    -2.129000000     4.334000000     2.544000000
H    -3.186000000     4.572000000     2.679000000
C    -1.918000000     4.282000000     1.071000000
C    -3.032000000     3.967000000     0.249000000
H    -3.959000000     3.732000000     0.765000000
H    -1.818000000     5.274000000     3.004000000
C    -2.801000000     2.025000000     3.480000000
H    -3.830000000     2.262000000     3.223000000
C    -2.451000000     0.836000000     4.075000000
C    -3.514000000    -0.233000000     4.253000000
H    -4.472000000     0.267000000     4.411000000
H    -3.276000000    -0.755000000     5.181000000
C    -3.469000000    -1.160000000     3.016000000
C    -4.469000000    -0.928000000     1.991000000
H    -5.172000000    -0.099000000     1.993000000
C    -2.604000000    -2.250000000     2.879000000
C    -2.564000000    -2.959000000     1.702000000
H    -1.814000000    -3.735000000     1.575000000
C    -3.483000000    -2.715000000     0.695000000
O    -3.286000000    -3.449000000    -0.472000000
C    -2.698000000    -2.828000000    -1.527000000
C    -1.641000000    -3.782000000    -2.075000000
C    -1.149000000    -3.629000000    -3.401000000
H    -1.591000000    -2.781000000    -3.919000000
C    -0.948000000    -4.778000000    -1.311000000
H    -1.236000000    -4.840000000    -0.265000000
O    -3.625000000    -2.271000000    -2.465000000
H    -2.062000000    -2.014000000    -1.149000000
C    -4.407000000    -1.642000000     0.784000000
C    -5.394000000    -1.299000000    -0.324000000
H    -6.290000000    -0.817000000     0.074000000
H    -5.729000000    -2.216000000    -0.815000000
C    -4.651000000    -0.397000000    -1.376000000
C    -4.795000000     1.002000000    -1.215000000
H    -5.448000000     1.310000000    -0.402000000
C    -3.846000000    -0.917000000    -2.377000000
C    -3.208000000    -0.070000000    -3.254000000
H    -2.639000000    -0.474000000    -4.087000000
C    -3.281000000     1.263000000    -3.113000000
O    -2.516000000     2.003000000    -3.999000000
C    -1.245000000     2.514000000    -3.428000000
C    -0.148000000     2.359000000    -4.461000000
C    -0.214000000     1.385000000    -5.471000000
H    -1.118000000     0.788000000    -5.559000000
C     1.025000000     3.070000000    -4.320000000
H     1.044000000     3.929000000    -3.655000000
O    -1.480000000     3.857000000    -3.009000000
H    -0.903000000     1.998000000    -2.519000000
C    -4.025000000     1.861000000    -2.057000000
C    -4.143000000     3.395000000    -1.914000000
H    -5.021000000     3.519000000    -1.277000000
H    -4.247000000     3.953000000    -2.847000000
C    -2.959000000     3.883000000    -1.097000000
C    -1.710000000     4.079000000    -1.687000000
C    -0.559000000     4.367000000    -0.902000000
H     0.355000000     4.501000000    -1.474000000
C    -0.672000000     4.514000000     0.440000000
O     0.423000000     4.695000000     1.159000000
C     1.056000000     3.608000000     1.942000000
H     0.708000000     2.637000000     1.559000000
C     2.574000000     3.739000000     1.917000000
C     3.239000000     3.221000000     3.005000000
H     2.761000000     2.948000000     3.942000000
C     3.232000000     4.052000000     0.752000000
H     2.645000000     4.472000000    -0.061000000
C     4.577000000     3.832000000     0.562000000
O     5.219000000     4.009000000    -0.591000000
C     5.287000000     3.233000000     1.587000000
H     6.310000000     2.904000000     1.420000000
C     4.562000000     3.006000000     2.768000000
O     5.292000000     2.402000000     3.838000000
C     4.871000000     1.500000000     4.779000000
C     4.602000000     0.138000000     4.486000000
H     4.760000000    -0.277000000     3.493000000
C     4.834000000     1.937000000     6.121000000
H     5.056000000     2.942000000     6.471000000
C     4.504000000     1.037000000     7.108000000
H     4.429000000     1.405000000     8.128000000
C     4.247000000    -0.333000000     6.832000000
H     4.134000000    -1.149000000     7.542000000
C     4.243000000    -0.754000000     5.488000000
O     4.119000000    -2.161000000     5.249000000
C     2.943000000    -2.709000000     4.760000000
C     2.998000000    -4.106000000     4.353000000
H     3.918000000    -4.640000000     4.578000000
C     1.902000000    -4.712000000     3.871000000
O     1.925000000    -5.989000000     3.567000000
C     1.175000000    -6.612000000     2.570000000
C     1.313000000    -6.293000000     1.202000000
H     2.129000000    -5.680000000     0.826000000
C     0.017000000    -7.267000000     2.984000000
H    -0.081000000    -7.513000000     4.039000000
C    -0.921000000    -7.723000000     2.096000000
H    -1.792000000    -8.243000000     2.488000000
C    -0.731000000    -7.566000000     0.693000000
H    -1.414000000    -7.860000000    -0.100000000
C     0.365000000    -6.796000000     0.253000000
O     0.635000000    -6.566000000    -1.070000000
C     0.129000000    -5.539000000    -1.803000000
C     0.533000000    -5.345000000    -3.123000000
H     1.309000000    -5.996000000    -3.519000000
C    -0.050000000    -4.359000000    -3.898000000
O     0.497000000    -4.031000000    -5.118000000
C     0.002000000    -3.167000000    -6.017000000
C     0.643000000    -1.942000000    -6.301000000
H     1.419000000    -1.653000000    -5.597000000
C    -1.197000000    -3.408000000    -6.741000000
H    -1.786000000    -4.286000000    -6.489000000
C    -1.723000000    -2.451000000    -7.562000000
H    -2.671000000    -2.616000000    -8.067000000
C    -1.056000000    -1.264000000    -7.814000000
H    -1.397000000    -0.537000000    -8.547000000
C     0.146000000    -0.953000000    -7.165000000
O     0.772000000     0.257000000    -7.317000000
C     0.810000000     1.162000000    -6.279000000
C     1.963000000     1.934000000    -6.168000000
H     2.732000000     1.642000000    -6.878000000
C     2.108000000     2.885000000    -5.177000000
O     3.347000000     3.541000000    -5.061000000
C     3.597000000     4.257000000    -3.912000000
C     3.224000000     5.595000000    -3.877000000
H     2.811000000     6.084000000    -4.756000000
C     3.497000000     6.369000000    -2.839000000
H     3.278000000     7.429000000    -2.938000000
C     4.235000000     5.837000000    -1.799000000
H     4.536000000     6.578000000    -1.063000000
C     4.528000000     4.472000000    -1.662000000
C     4.114000000     3.653000000    -2.746000000
H     4.363000000     2.603000000    -2.876000000
C     1.729000000    -0.526000000    -1.694000000
H     2.150000000    -0.647000000    -2.688000000
C     0.373000000    -0.380000000    -1.451000000
H    -0.291000000    -0.448000000    -2.309000000
C    -0.093000000    -0.292000000    -0.114000000
H    -1.190000000    -0.279000000    -0.057000000
C     0.749000000    -0.124000000     0.956000000
H     0.311000000     0.117000000     1.921000000
C     2.080000000    -0.311000000     0.742000000
H     2.653000000    -0.176000000     1.655000000
C     2.586000000    -0.495000000    -0.587000000
C     4.025000000    -0.619000000    -0.744000000
O     4.716000000    -1.099000000     0.217000000
O     4.498000000    -0.362000000    -1.795000000
O     6.114000000    -3.395000000    -0.877000000
H     5.702000000    -2.982000000    -0.118000000
H     6.649000000    -2.704000000    -1.265000000
O     8.015000000     2.077000000     3.862000000
H     7.096000000     1.939000000     3.633000000
H     8.503000000     1.612000000     3.183000000
O     6.454000000    -3.555000000    -3.948000000
H     7.024000000    -3.973000000    -4.594000000
H     6.993000000    -2.863000000    -3.565000000
O     8.216000000    -1.817000000    -1.747000000
H     8.677000000    -1.096000000    -1.319000000
H     8.904000000    -2.446000000    -1.964000000
O     3.294000000    -4.264000000    -1.208000000
H     4.195000000    -3.941000000    -1.201000000
H     3.007000000    -4.152000000    -2.115000000
O     4.435000000    -6.744000000    -0.159000000
H     4.094000000    -6.256000000    -0.908000000
H     5.046000000    -6.139000000     0.263000000
O     6.458000000    -0.208000000    -3.644000000
H     5.701000000    -0.119000000    -3.065000000
H     7.125000000    -0.633000000    -3.103000000
O     6.810000000    -3.053000000     4.172000000
H     6.051000000    -3.011000000     4.753000000
H     6.591000000    -2.466000000     3.449000000
O     3.956000000    -1.023000000    -6.218000000
H     3.792000000    -1.102000000    -5.278000000
H     4.740000000    -0.478000000    -6.281000000
O     3.760000000    -3.055000000     1.663000000
H     4.019000000    -2.334000000     1.089000000
H     2.891000000    -3.308000000     1.352000000
O     5.395000000    -5.125000000     2.040000000
H     4.915000000    -5.847000000     2.445000000
H     4.801000000    -4.377000000     2.106000000
O     7.021000000     0.660000000    -0.312000000
H     6.196000000     0.180000000    -0.236000000
H     6.963000000     1.104000000    -1.158000000
O     6.150000000     0.596000000    -6.199000000
H     6.710000000     1.372000000    -6.226000000
H     6.300000000     0.222000000    -5.330000000
O     5.015000000    -5.939000000    -3.695000000
H     5.652000000    -6.631000000    -3.515000000
H     5.377000000    -5.164000000    -3.265000000
O     8.908000000     1.035000000     1.542000000
H     8.190000000     1.093000000     0.911000000
H     9.256000000     0.151000000     1.426000000
O     3.942000000    -2.368000000    -3.343000000
H     4.789000000    -2.694000000    -3.649000000
H     4.163000000    -1.695000000    -2.699000000
O     6.619000000    -1.629000000     2.039000000
H     6.182000000    -1.419000000     1.213000000
H     7.526000000    -1.356000000     1.906000000
O     1.376000000    -3.345000000     0.389000000
H     0.720000000    -2.832000000    -0.083000000
H     2.038000000    -3.553000000    -0.271000000
O     7.670000000    -5.143000000     0.390000000
H     7.122000000    -4.592000000    -0.169000000
H     7.227000000    -5.137000000     1.239000000
