215
-1462.31877
C     0.726000000    -3.863000000     3.822000000
H    -0.306000000    -4.196000000     3.748000000
C     0.877000000    -2.462000000     4.026000000
C     2.191000000    -1.958000000     4.133000000
H     2.358000000    -0.885000000     4.072000000
C    -0.279000000    -1.533000000     3.963000000
O    -1.522000000    -2.125000000     4.193000000
H    -0.248000000    -1.018000000     2.991000000
O    -0.061000000    -0.413000000     4.822000000
C    -0.500000000     0.881000000     4.391000000
C     0.505000000     1.809000000     4.124000000
H     1.563000000     1.586000000     4.236000000
C     0.193000000     3.040000000     3.562000000
O     1.185000000     3.855000000     3.091000000
C    -1.196000000     3.347000000     3.356000000
C    -1.595000000     4.720000000     2.751000000
H    -2.550000000     5.032000000     3.178000000
C    -1.590000000     4.572000000     1.195000000
C    -2.740000000     4.155000000     0.535000000
H    -3.676000000     3.910000000     1.030000000
H    -0.844000000     5.405000000     3.150000000
C    -2.219000000     2.396000000     3.658000000
H    -3.263000000     2.615000000     3.450000000
C    -1.854000000     1.224000000     4.272000000
C    -2.953000000     0.239000000     4.724000000
H    -3.861000000     0.736000000     5.075000000
H    -2.575000000    -0.263000000     5.616000000
C    -3.330000000    -0.690000000     3.577000000
C    -4.302000000    -0.366000000     2.627000000
H    -4.969000000     0.474000000     2.804000000
C    -2.571000000    -1.806000000     3.414000000
C    -2.793000000    -2.618000000     2.272000000
H    -2.190000000    -3.507000000     2.106000000
C    -3.727000000    -2.315000000     1.321000000
O    -3.840000000    -3.086000000     0.166000000
C    -3.054000000    -2.718000000    -0.953000000
C    -2.403000000    -3.908000000    -1.698000000
C    -1.980000000    -3.653000000    -2.981000000
H    -2.182000000    -2.774000000    -3.587000000
C    -1.882000000    -4.954000000    -0.913000000
H    -2.012000000    -4.940000000     0.166000000
O    -3.938000000    -2.118000000    -1.856000000
H    -2.342000000    -1.950000000    -0.617000000
C    -4.554000000    -1.229000000     1.503000000
C    -5.488000000    -0.799000000     0.423000000
H    -6.197000000    -0.070000000     0.820000000
H    -6.017000000    -1.660000000     0.008000000
C    -4.794000000    -0.109000000    -0.731000000
C    -4.676000000     1.278000000    -0.723000000
H    -5.077000000     1.838000000     0.118000000
C    -4.136000000    -0.771000000    -1.758000000
C    -3.335000000    -0.086000000    -2.705000000
H    -2.901000000    -0.583000000    -3.569000000
C    -3.428000000     1.283000000    -2.733000000
O    -2.672000000     1.938000000    -3.677000000
C    -1.334000000     2.335000000    -3.216000000
C    -0.224000000     2.023000000    -4.242000000
C    -0.540000000     1.125000000    -5.269000000
H    -1.584000000     0.838000000    -5.368000000
C     1.096000000     2.508000000    -4.117000000
H     1.367000000     3.069000000    -3.225000000
O    -1.334000000     3.745000000    -2.827000000
H    -1.081000000     1.684000000    -2.366000000
C    -4.071000000     1.973000000    -1.708000000
C    -3.983000000     3.534000000    -1.546000000
H    -4.792000000     3.989000000    -0.971000000
H    -4.089000000     3.899000000    -2.570000000
C    -2.673000000     3.980000000    -0.864000000
C    -1.529000000     4.191000000    -1.553000000
C    -0.333000000     4.620000000    -0.945000000
H     0.556000000     4.784000000    -1.549000000
C    -0.437000000     4.808000000     0.435000000
O     0.784000000     5.114000000     1.019000000
C     1.414000000     3.922000000     1.676000000
H     0.934000000     3.017000000     1.275000000
C     2.981000000     3.712000000     1.433000000
C     3.807000000     3.093000000     2.399000000
H     3.366000000     2.882000000     3.370000000
C     3.475000000     4.102000000     0.172000000
H     2.831000000     4.688000000    -0.478000000
C     4.825000000     3.897000000    -0.099000000
O     5.419000000     4.448000000    -1.199000000
C     5.615000000     3.310000000     0.879000000
H     6.665000000     3.155000000     0.644000000
C     5.188000000     2.840000000     2.089000000
O     6.007000000     2.314000000     3.043000000
C     5.427000000     1.371000000     3.886000000
C     5.352000000     0.083000000     3.425000000
H     5.475000000    -0.037000000     2.352000000
C     5.303000000     1.610000000     5.245000000
H     5.581000000     2.624000000     5.520000000
C     4.902000000     0.660000000     6.123000000
H     4.826000000     0.853000000     7.190000000
C     4.703000000    -0.675000000     5.687000000
H     4.337000000    -1.477000000     6.324000000
C     4.864000000    -0.947000000     4.315000000
O     4.562000000    -2.227000000     3.894000000
C     3.265000000    -2.755000000     3.928000000
C     3.131000000    -4.132000000     3.728000000
H     4.029000000    -4.725000000     3.573000000
C     1.861000000    -4.666000000     3.690000000
O     1.622000000    -6.027000000     3.471000000
C     0.619000000    -6.459000000     2.643000000
C     0.600000000    -6.317000000     1.238000000
H     1.372000000    -5.711000000     0.772000000
C    -0.232000000    -7.286000000     3.336000000
H    -0.183000000    -7.328000000     4.421000000
C    -1.170000000    -8.019000000     2.589000000
H    -1.750000000    -8.731000000     3.170000000
C    -1.161000000    -7.972000000     1.150000000
H    -1.877000000    -8.597000000     0.623000000
C    -0.352000000    -7.034000000     0.502000000
O    -0.412000000    -6.878000000    -0.920000000
C    -0.929000000    -5.788000000    -1.521000000
C    -0.541000000    -5.616000000    -2.823000000
H     0.142000000    -6.295000000    -3.326000000
C    -1.019000000    -4.550000000    -3.521000000
O    -0.542000000    -4.394000000    -4.837000000
C    -0.950000000    -3.357000000    -5.649000000
C    -0.109000000    -2.258000000    -6.043000000
H     0.942000000    -2.138000000    -5.790000000
C    -2.222000000    -3.440000000    -6.209000000
H    -2.751000000    -4.387000000    -6.140000000
C    -2.709000000    -2.491000000    -7.083000000
H    -3.696000000    -2.505000000    -7.536000000
C    -1.936000000    -1.395000000    -7.407000000
H    -2.364000000    -0.581000000    -7.985000000
C    -0.628000000    -1.314000000    -6.893000000
O     0.119000000    -0.229000000    -7.204000000
C     0.396000000     0.743000000    -6.224000000
C     1.688000000     1.214000000    -6.056000000
H     2.421000000     0.871000000    -6.783000000
C     2.069000000     2.137000000    -5.078000000
O     3.398000000     2.494000000    -4.985000000
C     3.762000000     3.634000000    -4.352000000
C     3.494000000     4.902000000    -4.863000000
H     2.995000000     5.051000000    -5.817000000
C     3.918000000     5.996000000    -4.105000000
H     3.725000000     7.024000000    -4.401000000
C     4.609000000     5.834000000    -2.915000000
H     4.888000000     6.689000000    -2.305000000
C     4.844000000     4.558000000    -2.461000000
C     4.406000000     3.436000000    -3.128000000
H     4.642000000     2.427000000    -2.799000000
C     1.118000000    -0.960000000    -2.482000000
H     0.829000000    -1.480000000    -3.392000000
C     0.172000000    -0.691000000    -1.530000000
H    -0.865000000    -0.990000000    -1.655000000
C     0.498000000     0.137000000    -0.392000000
H    -0.262000000     0.411000000     0.362000000
C     1.806000000     0.485000000    -0.156000000
H     2.040000000     1.073000000     0.728000000
C     2.772000000     0.200000000    -1.078000000
H     3.790000000     0.526000000    -0.881000000
C     2.423000000    -0.478000000    -2.272000000
C     3.321000000    -0.599000000    -3.480000000
O     4.463000000    -0.226000000    -3.252000000
O     3.029000000    -1.305000000    -4.446000000
O     2.651000000    -3.838000000    -4.888000000
H     2.890000000    -2.928000000    -4.710000000
H     2.053000000    -4.072000000    -4.178000000
O     6.859000000    -3.520000000    -3.384000000
H     6.321000000    -4.307000000    -3.298000000
H     6.540000000    -2.935000000    -2.697000000
O     6.044000000    -1.543000000    -1.501000000
H     6.327000000    -1.075000000    -0.716000000
H     5.669000000    -0.865000000    -2.063000000
O     4.647000000     1.780000000    -9.263000000
H     4.523000000     0.897000000    -9.610000000
H     5.169000000     1.655000000    -8.470000000
O     4.904000000    -1.905000000    -6.372000000
H     5.796000000    -1.799000000    -6.042000000
H     4.351000000    -1.506000000    -5.700000000
O     9.166000000    -0.515000000    -4.078000000
H     9.541000000    -0.354000000    -3.212000000
H     9.922000000    -0.706000000    -4.633000000
O     1.927000000     0.245000000    -9.476000000
H     2.501000000    -0.496000000    -9.283000000
H     1.582000000     0.509000000    -8.623000000
O     7.560000000    -0.522000000     0.460000000
H     8.394000000    -0.106000000     0.677000000
H     7.624000000    -1.399000000     0.837000000
O     6.628000000    -5.196000000    -0.709000000
H     6.025000000    -5.176000000    -1.452000000
H     7.144000000    -5.991000000    -0.840000000
O     3.379000000    -1.688000000    -8.475000000
H     3.941000000    -1.676000000    -7.701000000
H     3.987000000    -1.666000000    -9.214000000
O     4.878000000    -5.448000000    -2.961000000
H     3.975000000    -5.319000000    -2.671000000
H     4.883000000    -6.323000000    -3.347000000
O     4.909000000    -4.763000000    -6.237000000
H     4.366000000    -4.877000000    -5.457000000
H     5.119000000    -3.829000000    -6.248000000
O     6.345000000     1.069000000    -4.472000000
H     5.558000000     0.581000000    -4.231000000
H     7.041000000     0.677000000    -3.945000000
O     2.093000000    -4.518000000    -7.706000000
H     1.846000000    -3.755000000    -8.229000000
H     2.439000000    -4.149000000    -6.893000000
O     1.965000000    -3.150000000     0.369000000
H     1.825000000    -2.435000000    -0.252000000
H     2.263000000    -2.717000000     1.169000000
O     2.385000000    -4.995000000    -2.092000000
H     2.200000000    -4.313000000    -1.446000000
H     1.824000000    -5.727000000    -1.836000000
O     7.449000000     4.434000000    -3.729000000
H     7.368000000     5.094000000    -4.418000000
H     6.822000000     3.753000000    -3.975000000
O     7.539000000    -2.283000000    -5.685000000
H     7.162000000    -2.868000000    -5.028000000
H     8.007000000    -1.621000000    -5.176000000
O     5.381000000     1.383000000    -6.828000000
H     4.751000000     2.075000000    -6.630000000
H     5.837000000     1.230000000    -6.001000000
