215
-1442.45665
C     1.924000000    -4.004000000     3.143000000
H     1.072000000    -4.639000000     2.916000000
C     1.747000000    -2.784000000     3.737000000
C     2.883000000    -2.151000000     4.233000000
H     2.755000000    -1.143000000     4.620000000
C     0.320000000    -2.143000000     3.832000000
O    -0.650000000    -3.213000000     3.959000000
H    -0.003000000    -1.556000000     2.960000000
O     0.308000000    -1.267000000     4.965000000
C    -0.251000000    -0.023000000     4.688000000
C     0.540000000     1.038000000     4.415000000
H     1.626000000     1.024000000     4.462000000
C    -0.015000000     2.242000000     4.035000000
O     0.791000000     3.272000000     3.716000000
C    -1.462000000     2.351000000     3.936000000
C    -2.065000000     3.650000000     3.585000000
H    -3.089000000     3.648000000     3.964000000
C    -2.196000000     3.980000000     2.128000000
C    -3.352000000     3.391000000     1.459000000
H    -4.112000000     2.834000000     2.001000000
H    -1.574000000     4.445000000     4.151000000
C    -2.238000000     1.286000000     4.228000000
H    -3.318000000     1.340000000     4.120000000
C    -1.629000000     0.099000000     4.620000000
C    -2.572000000    -1.098000000     4.816000000
H    -3.573000000    -0.795000000     5.131000000
H    -2.267000000    -1.695000000     5.678000000
C    -2.733000000    -1.994000000     3.577000000
C    -3.856000000    -1.781000000     2.762000000
H    -4.576000000    -1.059000000     3.139000000
C    -1.834000000    -2.995000000     3.261000000
C    -1.927000000    -3.759000000     2.071000000
H    -1.195000000    -4.534000000     1.860000000
C    -2.906000000    -3.387000000     1.114000000
O    -2.894000000    -3.960000000    -0.131000000
C    -2.505000000    -3.079000000    -1.131000000
C    -1.462000000    -3.786000000    -2.033000000
C    -1.638000000    -3.568000000    -3.407000000
H    -2.475000000    -2.966000000    -3.751000000
C    -0.434000000    -4.573000000    -1.500000000
H    -0.273000000    -4.745000000    -0.438000000
O    -3.581000000    -2.490000000    -1.850000000
H    -1.958000000    -2.235000000    -0.687000000
C    -3.911000000    -2.412000000     1.508000000
C    -5.059000000    -2.040000000     0.560000000
H    -5.997000000    -1.762000000     1.045000000
H    -5.415000000    -2.931000000     0.039000000
C    -4.683000000    -0.971000000    -0.407000000
C    -4.947000000     0.359000000    -0.063000000
H    -5.430000000     0.683000000     0.855000000
C    -4.036000000    -1.192000000    -1.632000000
C    -3.835000000    -0.197000000    -2.566000000
H    -3.295000000    -0.417000000    -3.483000000
C    -4.034000000     1.111000000    -2.239000000
O    -3.473000000     2.136000000    -3.068000000
C    -2.287000000     2.744000000    -2.721000000
C    -1.273000000     2.682000000    -3.867000000
C    -1.254000000     1.570000000    -4.765000000
H    -2.097000000     0.888000000    -4.839000000
C    -0.083000000     3.519000000    -3.781000000
H    -0.011000000     4.280000000    -3.009000000
O    -2.520000000     4.075000000    -2.080000000
H    -1.738000000     2.250000000    -1.907000000
C    -4.562000000     1.402000000    -0.954000000
C    -4.702000000     2.884000000    -0.582000000
H    -5.604000000     3.001000000     0.022000000
H    -4.954000000     3.486000000    -1.458000000
C    -3.490000000     3.473000000     0.065000000
C    -2.540000000     4.187000000    -0.727000000
C    -1.423000000     4.731000000    -0.092000000
H    -0.599000000     5.172000000    -0.646000000
C    -1.218000000     4.482000000     1.278000000
O     0.061000000     4.702000000     1.873000000
C     0.916000000     3.629000000     2.296000000
H     0.491000000     2.801000000     1.709000000
C     2.346000000     3.851000000     1.823000000
C     3.286000000     2.975000000     2.274000000
H     2.948000000     2.271000000     3.029000000
C     2.608000000     4.700000000     0.728000000
H     1.803000000     5.372000000     0.440000000
C     3.897000000     4.650000000     0.158000000
O     4.269000000     5.526000000    -0.832000000
C     4.792000000     3.613000000     0.545000000
H     5.800000000     3.696000000     0.146000000
C     4.501000000     2.837000000     1.618000000
O     5.496000000     1.953000000     1.985000000
C     5.506000000     1.386000000     3.193000000
C     5.347000000    -0.052000000     3.237000000
H     5.309000000    -0.595000000     2.296000000
C     5.597000000     2.128000000     4.360000000
H     5.533000000     3.213000000     4.407000000
C     5.702000000     1.463000000     5.596000000
H     5.709000000     2.107000000     6.471000000
C     5.669000000     0.049000000     5.651000000
H     5.718000000    -0.415000000     6.633000000
C     5.494000000    -0.723000000     4.471000000
O     5.243000000    -2.099000000     4.604000000
C     4.197000000    -2.666000000     3.964000000
C     4.323000000    -3.850000000     3.236000000
H     5.321000000    -4.189000000     2.971000000
C     3.207000000    -4.549000000     2.886000000
O     3.393000000    -5.810000000     2.332000000
C     2.487000000    -6.394000000     1.417000000
C     2.475000000    -5.947000000     0.164000000
H     3.111000000    -5.109000000    -0.108000000
C     1.481000000    -7.267000000     1.768000000
H     1.403000000    -7.547000000     2.815000000
C     0.587000000    -7.849000000     0.845000000
H    -0.118000000    -8.620000000     1.145000000
C     0.662000000    -7.442000000    -0.478000000
H    -0.123000000    -7.751000000    -1.164000000
C     1.607000000    -6.426000000    -0.816000000
O     1.610000000    -5.839000000    -2.093000000
C     0.475000000    -5.127000000    -2.445000000
C     0.322000000    -4.944000000    -3.775000000
H     1.106000000    -5.206000000    -4.481000000
C    -0.769000000    -4.270000000    -4.232000000
O    -0.994000000    -4.099000000    -5.631000000
C    -1.392000000    -3.000000000    -6.296000000
C    -0.750000000    -1.817000000    -6.019000000
H     0.129000000    -1.827000000    -5.379000000
C    -2.484000000    -2.975000000    -7.222000000
H    -2.987000000    -3.898000000    -7.499000000
C    -2.806000000    -1.825000000    -7.940000000
H    -3.465000000    -1.999000000    -8.787000000
C    -2.000000000    -0.695000000    -7.706000000
H    -2.080000000     0.178000000    -8.348000000
C    -0.988000000    -0.687000000    -6.802000000
O    -0.291000000     0.477000000    -6.633000000
C    -0.237000000     1.424000000    -5.736000000
C     0.818000000     2.327000000    -5.667000000
H     1.573000000     2.091000000    -6.412000000
C     0.932000000     3.247000000    -4.700000000
O     2.019000000     4.066000000    -4.827000000
C     2.399000000     5.011000000    -3.917000000
C     1.736000000     6.236000000    -3.943000000
H     1.056000000     6.472000000    -4.758000000
C     2.037000000     7.300000000    -3.117000000
H     1.549000000     8.242000000    -3.351000000
C     2.917000000     7.023000000    -2.006000000
H     3.045000000     7.757000000    -1.214000000
C     3.486000000     5.755000000    -1.891000000
C     3.305000000     4.786000000    -2.865000000
H     3.759000000     3.799000000    -2.839000000
C     1.668000000    -0.008000000    -2.872000000
H     1.670000000    -0.008000000    -3.959000000
C     0.388000000    -0.059000000    -2.239000000
H    -0.471000000    -0.369000000    -2.828000000
C     0.243000000     0.423000000    -0.946000000
H    -0.714000000     0.481000000    -0.489000000
C     1.420000000     0.823000000    -0.223000000
H     1.362000000     1.158000000     0.810000000
C     2.684000000     0.741000000    -0.810000000
H     3.539000000     1.081000000    -0.231000000
C     2.794000000     0.390000000    -2.145000000
C     4.178000000     0.602000000    -2.824000000
O     5.065000000     1.230000000    -2.321000000
O     4.350000000     0.076000000    -3.855000000
O     2.512000000    -2.884000000    -6.293000000
H     2.304000000    -3.548000000    -6.950000000
H     2.981000000    -2.205000000    -6.779000000
O     7.816000000     1.691000000    -2.753000000
H     7.025000000     1.309000000    -2.373000000
H     7.519000000     2.511000000    -3.149000000
O     7.205000000     4.041000000    -5.888000000
H     6.683000000     3.385000000    -5.426000000
H     6.711000000     4.854000000    -5.789000000
O     6.805000000    -1.448000000    -3.343000000
H     6.526000000    -2.239000000    -2.881000000
H     6.049000000    -0.862000000    -3.291000000
O     3.235000000    -2.673000000    -3.530000000
H     3.510000000    -1.758000000    -3.462000000
H     2.935000000    -2.765000000    -4.434000000
O     4.910000000    -2.012000000    -8.112000000
H     4.889000000    -1.148000000    -7.701000000
H     5.700000000    -2.425000000    -7.762000000
O     5.150000000    -3.285000000    -1.528000000
H     4.660000000    -3.701000000    -2.237000000
H     4.476000000    -2.915000000    -0.957000000
O     6.333000000     0.047000000    -0.237000000
H     5.970000000     0.607000000    -0.923000000
H     6.841000000     0.643000000     0.314000000
O     8.267000000     1.165000000    -7.754000000
H     8.863000000     1.895000000    -7.584000000
H     8.147000000     0.750000000    -6.900000000
O     4.761000000     0.342000000    -6.481000000
H     5.659000000     0.565000000    -6.236000000
H     4.310000000     0.213000000    -5.647000000
O     7.711000000    -2.159000000    -0.409000000
H     6.983000000    -2.779000000    -0.375000000
H     7.293000000    -1.298000000    -0.432000000
O     4.687000000    -4.576000000    -4.904000000
H     4.212000000    -3.988000000    -4.317000000
H     5.294000000    -4.005000000    -5.375000000
O     9.585000000     2.592000000    -0.975000000
H     9.995000000     1.933000000    -0.414000000
H     8.975000000     2.096000000    -1.520000000
O     9.711000000    -1.111000000    -2.060000000
H     9.139000000    -1.585000000    -1.455000000
H     9.120000000    -0.771000000    -2.732000000
O     3.632000000     1.169000000    -8.783000000
H     4.325000000     1.330000000    -9.424000000
H     4.098000000     0.986000000    -7.967000000
O     7.894000000     0.292000000    -5.269000000
H     7.600000000    -0.582000000    -5.012000000
H     7.853000000     0.806000000    -4.463000000
O     5.458000000     2.547000000    -4.742000000
H     4.703000000     2.631000000    -5.325000000
H     5.154000000     1.973000000    -4.038000000
O     2.754000000    -2.516000000    -0.186000000
H     2.454000000    -2.726000000     0.699000000
H     2.154000000    -1.833000000    -0.486000000
O     6.789000000    -3.228000000    -6.331000000
H     7.524000000    -3.040000000    -5.747000000
H     7.081000000    -3.978000000    -6.849000000
