215
-1449.71352
C     1.224000000    -3.845000000     3.403000000
H     0.336000000    -4.201000000     2.887000000
C     1.189000000    -2.488000000     3.828000000
C     2.332000000    -1.926000000     4.385000000
H     2.393000000    -0.909000000     4.764000000
C    -0.171000000    -1.737000000     3.799000000
O    -1.275000000    -2.605000000     4.018000000
H    -0.225000000    -1.270000000     2.804000000
O    -0.220000000    -0.683000000     4.827000000
C    -0.745000000     0.479000000     4.494000000
C     0.166000000     1.527000000     4.348000000
H     1.168000000     1.291000000     4.694000000
C    -0.258000000     2.717000000     3.796000000
O     0.750000000     3.522000000     3.434000000
C    -1.623000000     3.030000000     3.688000000
C    -2.152000000     4.331000000     3.070000000
H    -3.182000000     4.479000000     3.401000000
C    -2.134000000     4.310000000     1.594000000
C    -3.247000000     3.926000000     0.812000000
H    -4.087000000     3.536000000     1.383000000
H    -1.505000000     5.145000000     3.402000000
C    -2.527000000     1.964000000     4.022000000
H    -3.595000000     2.136000000     3.910000000
C    -2.076000000     0.718000000     4.380000000
C    -3.130000000    -0.318000000     4.571000000
H    -4.077000000     0.185000000     4.776000000
H    -2.980000000    -0.926000000     5.466000000
C    -3.265000000    -1.304000000     3.423000000
C    -4.311000000    -1.162000000     2.475000000
H    -4.998000000    -0.333000000     2.633000000
C    -2.399000000    -2.399000000     3.243000000
C    -2.559000000    -3.200000000     2.106000000
H    -1.911000000    -4.054000000     1.923000000
C    -3.468000000    -2.915000000     1.111000000
O    -3.396000000    -3.662000000    -0.075000000
C    -2.720000000    -2.959000000    -1.124000000
C    -1.643000000    -3.830000000    -1.838000000
C    -1.200000000    -3.541000000    -3.167000000
H    -1.617000000    -2.661000000    -3.650000000
C    -1.046000000    -4.945000000    -1.260000000
H    -1.458000000    -5.286000000    -0.313000000
O    -3.643000000    -2.344000000    -2.070000000
H    -2.222000000    -2.152000000    -0.567000000
C    -4.367000000    -1.845000000     1.278000000
C    -5.379000000    -1.479000000     0.135000000
H    -6.239000000    -1.010000000     0.617000000
H    -5.798000000    -2.394000000    -0.287000000
C    -4.754000000    -0.514000000    -0.825000000
C    -4.924000000     0.902000000    -0.658000000
H    -5.600000000     1.335000000     0.075000000
C    -4.035000000    -1.010000000    -1.928000000
C    -3.492000000    -0.068000000    -2.812000000
H    -2.753000000    -0.383000000    -3.543000000
C    -3.607000000     1.270000000    -2.616000000
O    -2.974000000     2.065000000    -3.482000000
C    -1.690000000     2.582000000    -3.085000000
C    -0.659000000     2.406000000    -4.175000000
C    -0.854000000     1.606000000    -5.268000000
H    -1.794000000     1.071000000    -5.375000000
C     0.671000000     2.840000000    -3.901000000
H     0.989000000     3.293000000    -2.966000000
O    -1.947000000     3.905000000    -2.583000000
H    -1.218000000     2.029000000    -2.260000000
C    -4.346000000     1.736000000    -1.575000000
C    -4.513000000     3.228000000    -1.390000000
H    -5.464000000     3.373000000    -0.872000000
H    -4.635000000     3.812000000    -2.305000000
C    -3.307000000     3.773000000    -0.590000000
C    -2.137000000     4.091000000    -1.230000000
C    -1.025000000     4.420000000    -0.516000000
H    -0.086000000     4.541000000    -1.050000000
C    -0.921000000     4.513000000     0.842000000
O     0.207000000     4.831000000     1.509000000
C     1.035000000     3.782000000     1.998000000
H     0.644000000     2.833000000     1.601000000
C     2.455000000     3.852000000     1.663000000
C     3.220000000     2.759000000     2.137000000
H     2.690000000     2.019000000     2.732000000
C     2.938000000     4.616000000     0.632000000
H     2.298000000     5.429000000     0.298000000
C     4.312000000     4.507000000     0.235000000
O     4.765000000     5.381000000    -0.690000000
C     5.059000000     3.402000000     0.707000000
H     6.097000000     3.199000000     0.458000000
C     4.460000000     2.537000000     1.610000000
O     5.072000000     1.332000000     1.932000000
C     5.252000000     0.959000000     3.241000000
C     5.011000000    -0.392000000     3.453000000
H     4.904000000    -1.063000000     2.604000000
C     5.602000000     1.861000000     4.244000000
H     5.562000000     2.925000000     4.022000000
C     5.669000000     1.422000000     5.602000000
H     5.984000000     1.954000000     6.497000000
C     5.426000000     0.057000000     5.813000000
H     5.550000000    -0.415000000     6.784000000
C     5.074000000    -0.839000000     4.781000000
O     4.662000000    -2.160000000     5.079000000
C     3.505000000    -2.722000000     4.529000000
C     3.512000000    -4.054000000     4.149000000
H     4.444000000    -4.605000000     4.235000000
C     2.372000000    -4.655000000     3.615000000
O     2.375000000    -5.983000000     3.302000000
C     1.417000000    -6.553000000     2.402000000
C     1.437000000    -6.320000000     1.064000000
H     2.238000000    -5.686000000     0.694000000
C     0.421000000    -7.429000000     2.891000000
H     0.340000000    -7.622000000     3.958000000
C    -0.486000000    -8.045000000     2.020000000
H    -1.241000000    -8.704000000     2.442000000
C    -0.350000000    -7.905000000     0.703000000
H    -1.131000000    -8.358000000     0.098000000
C     0.631000000    -7.019000000     0.184000000
O     0.592000000    -6.828000000    -1.212000000
C     0.006000000    -5.723000000    -1.860000000
C     0.417000000    -5.349000000    -3.152000000
H     1.151000000    -5.944000000    -3.689000000
C    -0.221000000    -4.326000000    -3.853000000
O     0.286000000    -3.943000000    -5.036000000
C    -0.468000000    -3.034000000    -5.788000000
C     0.153000000    -1.812000000    -6.080000000
H     1.111000000    -1.458000000    -5.706000000
C    -1.739000000    -3.318000000    -6.289000000
H    -2.110000000    -4.311000000    -6.045000000
C    -2.440000000    -2.366000000    -7.135000000
H    -3.408000000    -2.613000000    -7.564000000
C    -1.805000000    -1.211000000    -7.483000000
H    -2.246000000    -0.446000000    -8.116000000
C    -0.568000000    -0.892000000    -6.927000000
O    -0.084000000     0.417000000    -7.145000000
C     0.140000000     1.328000000    -6.123000000
C     1.373000000     1.942000000    -6.027000000
H     2.152000000     1.812000000    -6.774000000
C     1.656000000     2.690000000    -4.887000000
O     2.892000000     3.200000000    -4.659000000
C     3.281000000     4.383000000    -3.926000000
C     3.445000000     5.613000000    -4.616000000
H     3.339000000     5.609000000    -5.698000000
C     3.764000000     6.798000000    -3.925000000
H     3.870000000     7.753000000    -4.434000000
C     4.323000000     6.651000000    -2.688000000
H     4.669000000     7.528000000    -2.146000000
C     4.218000000     5.415000000    -1.958000000
C     3.685000000     4.285000000    -2.605000000
H     3.560000000     3.334000000    -2.095000000
C     0.910000000    -0.033000000    -1.973000000
H     0.548000000    -0.061000000    -2.997000000
C    -0.040000000    -0.001000000    -0.954000000
H    -1.097000000    -0.026000000    -1.207000000
C     0.303000000    -0.036000000     0.371000000
H    -0.491000000     0.021000000     1.065000000
C     1.628000000     0.064000000     0.674000000
H     1.928000000     0.210000000     1.709000000
C     2.634000000     0.071000000    -0.353000000
H     3.682000000     0.078000000    -0.063000000
C     2.264000000    -0.009000000    -1.687000000
C     3.310000000    -0.063000000    -2.767000000
O     4.491000000    -0.264000000    -2.465000000
O     2.990000000    -0.255000000    -3.963000000
O     7.989000000    -1.509000000    -1.043000000
H     8.472000000    -1.158000000    -0.295000000
H     8.665000000    -1.715000000    -1.689000000
O     7.266000000     0.620000000    -7.054000000
H     7.971000000     0.921000000    -6.481000000
H     6.468000000     0.972000000    -6.658000000
O     3.232000000    -3.364000000    -4.191000000
H     4.031000000    -2.843000000    -4.266000000
H     2.522000000    -2.726000000    -4.253000000
O     5.272000000    -2.077000000    -0.870000000
H     6.204000000    -1.946000000    -0.696000000
H     5.040000000    -1.372000000    -1.475000000
O     4.492000000     1.332000000    -7.680000000
H     4.456000000     1.128000000    -8.615000000
H     4.333000000     0.494000000    -7.246000000
O     4.236000000    -0.808000000    -6.347000000
H     4.953000000    -1.275000000    -5.920000000
H     3.686000000    -0.502000000    -5.626000000
O     5.182000000    -4.705000000     0.468000000
H     4.623000000    -4.226000000     1.080000000
H     5.116000000    -4.215000000    -0.351000000
O     2.586000000    -1.112000000    -8.454000000
H     3.239000000    -1.249000000    -7.768000000
H     3.051000000    -0.626000000    -9.135000000
O     6.371000000    -4.824000000    -2.751000000
H     5.436000000    -4.782000000    -2.551000000
H     6.788000000    -5.014000000    -1.911000000
O     8.800000000     2.370000000    -0.559000000
H     9.417000000     1.923000000    -1.138000000
H     8.023000000     2.510000000    -1.099000000
O     3.935000000    -4.750000000    -6.171000000
H     3.568000000    -4.337000000    -5.389000000
H     4.746000000    -5.158000000    -5.869000000
O     6.618000000     1.267000000    -2.139000000
H     5.829000000     0.748000000    -2.295000000
H     7.240000000     0.648000000    -1.756000000
O     8.592000000    -0.865000000    -4.942000000
H     9.002000000    -0.013000000    -4.790000000
H     7.710000000    -0.774000000    -4.582000000
O     3.392000000    -2.590000000     0.941000000
H     3.856000000    -2.520000000     0.107000000
H     2.737000000    -1.893000000     0.910000000
O     3.723000000    -4.863000000    -1.969000000
H     3.115000000    -4.348000000    -2.499000000
H     3.708000000    -5.734000000    -2.365000000
O     7.158000000     3.840000000    -2.762000000
H     6.724000000     2.990000000    -2.690000000
H     7.016000000     4.105000000    -3.671000000
O     5.827000000    -1.981000000    -4.040000000
H     6.250000000    -2.707000000    -3.582000000
H     5.291000000    -1.555000000    -3.371000000
O     6.595000000    -1.862000000    -8.405000000
H     6.643000000    -1.224000000    -7.693000000
H     5.935000000    -1.508000000    -9.000000000
O     5.520000000     2.586000000    -5.489000000
H     5.223000000     2.425000000    -6.384000000
H     4.718000000     2.583000000    -4.966000000
