215
-1466.41805
C     0.850000000    -4.649000000     2.643000000
H    -0.188000000    -4.930000000     2.484000000
C     1.222000000    -3.449000000     3.195000000
C     2.587000000    -3.128000000     3.184000000
H     2.935000000    -2.145000000     3.490000000
C     0.179000000    -2.384000000     3.551000000
O    -1.052000000    -2.943000000     4.047000000
H     0.014000000    -1.664000000     2.736000000
O     0.675000000    -1.503000000     4.669000000
C     0.310000000    -0.181000000     4.702000000
C     1.288000000     0.664000000     4.306000000
H     2.250000000     0.283000000     3.971000000
C     1.022000000     2.001000000     4.046000000
O     2.062000000     2.729000000     3.534000000
C    -0.259000000     2.499000000     4.226000000
C    -0.584000000     3.987000000     4.049000000
H    -1.570000000     4.259000000     4.432000000
C    -0.711000000     4.404000000     2.545000000
C    -2.057000000     4.369000000     2.000000000
H    -2.902000000     4.235000000     2.671000000
H     0.082000000     4.670000000     4.581000000
C    -1.288000000     1.647000000     4.618000000
H    -2.305000000     2.004000000     4.762000000
C    -0.994000000     0.302000000     4.798000000
C    -2.127000000    -0.658000000     5.186000000
H    -2.911000000    -0.111000000     5.714000000
H    -1.679000000    -1.401000000     5.850000000
C    -2.749000000    -1.287000000     3.991000000
C    -3.822000000    -0.704000000     3.255000000
H    -4.255000000     0.216000000     3.638000000
C    -2.171000000    -2.492000000     3.488000000
C    -2.583000000    -2.990000000     2.280000000
H    -2.117000000    -3.906000000     1.925000000
C    -3.579000000    -2.327000000     1.547000000
O    -3.841000000    -2.871000000     0.300000000
C    -3.399000000    -2.114000000    -0.888000000
C    -2.731000000    -3.012000000    -1.894000000
C    -2.612000000    -2.551000000    -3.238000000
H    -2.864000000    -1.540000000    -3.548000000
C    -2.249000000    -4.252000000    -1.589000000
H    -2.244000000    -4.609000000    -0.562000000
O    -4.366000000    -1.210000000    -1.450000000
H    -2.585000000    -1.491000000    -0.487000000
C    -4.243000000    -1.182000000     1.989000000
C    -5.326000000    -0.473000000     1.225000000
H    -5.951000000     0.014000000     1.976000000
H    -5.886000000    -1.292000000     0.768000000
C    -4.703000000     0.578000000     0.257000000
C    -4.499000000     1.912000000     0.609000000
H    -4.872000000     2.220000000     1.582000000
C    -4.367000000     0.131000000    -1.058000000
C    -3.908000000     1.054000000    -1.967000000
H    -3.695000000     0.734000000    -2.984000000
C    -3.653000000     2.386000000    -1.585000000
O    -3.082000000     3.224000000    -2.384000000
C    -1.639000000     3.349000000    -2.278000000
C    -0.874000000     3.228000000    -3.645000000
C    -1.490000000     2.620000000    -4.749000000
H    -2.501000000     2.219000000    -4.752000000
C     0.420000000     3.640000000    -3.808000000
H     0.943000000     4.090000000    -2.968000000
O    -1.335000000     4.583000000    -1.592000000
H    -1.248000000     2.496000000    -1.704000000
C    -3.907000000     2.836000000    -0.306000000
C    -3.636000000     4.311000000     0.029000000
H    -4.269000000     4.753000000     0.802000000
H    -3.815000000     4.961000000    -0.830000000
C    -2.251000000     4.375000000     0.629000000
C    -1.147000000     4.464000000    -0.247000000
C     0.097000000     4.625000000     0.251000000
H     0.963000000     4.769000000    -0.389000000
C     0.340000000     4.607000000     1.647000000
O     1.646000000     4.469000000     2.015000000
C     2.042000000     3.097000000     2.162000000
H     1.367000000     2.444000000     1.589000000
C     3.445000000     2.817000000     1.592000000
C     4.360000000     1.971000000     2.181000000
H     4.123000000     1.477000000     3.120000000
C     3.828000000     3.420000000     0.416000000
H     3.121000000     4.058000000    -0.107000000
C     5.106000000     3.321000000    -0.124000000
O     5.480000000     3.968000000    -1.315000000
C     5.882000000     2.345000000     0.402000000
H     6.840000000     2.141000000    -0.070000000
C     5.550000000     1.656000000     1.552000000
O     6.476000000     0.813000000     2.128000000
C     6.227000000    -0.272000000     2.945000000
C     5.629000000    -1.408000000     2.460000000
H     5.281000000    -1.475000000     1.433000000
C     6.698000000    -0.300000000     4.264000000
H     7.185000000     0.475000000     4.851000000
C     6.508000000    -1.496000000     4.997000000
H     6.951000000    -1.460000000     5.989000000
C     5.746000000    -2.525000000     4.489000000
H     5.707000000    -3.442000000     5.072000000
C     5.420000000    -2.542000000     3.150000000
O     4.840000000    -3.584000000     2.518000000
C     3.524000000    -3.988000000     2.709000000
C     3.136000000    -5.252000000     2.177000000
H     3.827000000    -5.980000000     1.760000000
C     1.784000000    -5.606000000     2.214000000
O     1.422000000    -6.923000000     1.918000000
C     0.293000000    -7.220000000     1.094000000
C     0.306000000    -6.727000000    -0.218000000
H     1.150000000    -6.202000000    -0.657000000
C    -0.828000000    -7.854000000     1.638000000
H    -0.668000000    -8.134000000     2.676000000
C    -1.906000000    -8.128000000     0.795000000
H    -2.733000000    -8.698000000     1.211000000
C    -1.990000000    -7.614000000    -0.538000000
H    -2.798000000    -7.851000000    -1.225000000
C    -0.878000000    -6.873000000    -0.976000000
O    -0.960000000    -6.257000000    -2.256000000
C    -1.583000000    -5.054000000    -2.525000000
C    -1.451000000    -4.554000000    -3.803000000
H    -1.005000000    -5.214000000    -4.543000000
C    -1.851000000    -3.269000000    -4.167000000
O    -1.542000000    -2.815000000    -5.477000000
C    -2.124000000    -1.744000000    -6.100000000
C    -1.460000000    -0.564000000    -6.192000000
H    -0.467000000    -0.397000000    -5.782000000
C    -3.382000000    -1.911000000    -6.717000000
H    -3.962000000    -2.830000000    -6.688000000
C    -3.983000000    -0.799000000    -7.347000000
H    -4.970000000    -0.795000000    -7.802000000
C    -3.267000000     0.337000000    -7.456000000
H    -3.796000000     1.101000000    -8.019000000
C    -2.080000000     0.491000000    -6.831000000
O    -1.394000000     1.691000000    -6.995000000
C    -0.823000000     2.419000000    -5.981000000
C     0.527000000     2.767000000    -6.060000000
H     1.106000000     2.424000000    -6.914000000
C     1.169000000     3.399000000    -5.000000000
O     2.461000000     3.682000000    -5.049000000
C     3.148000000     4.399000000    -4.112000000
C     2.991000000     5.763000000    -4.064000000
H     2.188000000     6.226000000    -4.631000000
C     3.807000000     6.532000000    -3.206000000
H     3.670000000     7.610000000    -3.169000000
C     4.619000000     5.931000000    -2.295000000
H     5.192000000     6.416000000    -1.509000000
C     4.683000000     4.576000000    -2.253000000
C     4.077000000     3.788000000    -3.256000000
H     4.221000000     2.714000000    -3.348000000
C     0.489000000     0.287000000    -1.862000000
H    -0.067000000     0.331000000    -2.794000000
C    -0.249000000     0.413000000    -0.675000000
H    -1.334000000     0.467000000    -0.717000000
C     0.362000000     0.394000000     0.536000000
H    -0.157000000     0.496000000     1.454000000
C     1.722000000     0.151000000     0.619000000
H     2.206000000     0.187000000     1.592000000
C     2.470000000     0.175000000    -0.537000000
H     3.533000000     0.004000000    -0.383000000
C     1.892000000     0.238000000    -1.802000000
C     2.816000000     0.001000000    -3.030000000
O     4.013000000     0.203000000    -3.036000000
O     2.320000000    -0.531000000    -4.032000000
O     1.171000000    -3.907000000    -6.996000000
H     0.714000000    -3.732000000    -6.174000000
H     0.803000000    -3.276000000    -7.614000000
O     6.405000000    -0.790000000    -1.138000000
H     7.080000000    -0.369000000    -0.606000000
H     6.259000000    -0.182000000    -1.864000000
O     5.503000000    -1.635000000    -9.093000000
H     4.855000000    -1.583000000    -9.794000000
H     5.004000000    -1.912000000    -8.325000000
O     1.326000000    -2.892000000    -4.333000000
H     1.715000000    -2.058000000    -4.069000000
H     1.990000000    -3.546000000    -4.116000000
O     5.937000000    -4.718000000    -5.536000000
H     5.110000000    -5.170000000    -5.700000000
H     5.770000000    -4.184000000    -4.759000000
O     4.011000000    -2.932000000    -3.902000000
H     4.162000000    -3.061000000    -2.966000000
H     3.782000000    -2.006000000    -3.982000000
O     4.033000000     1.270000000    -5.746000000
H     3.550000000     2.096000000    -5.751000000
H     4.134000000     1.057000000    -4.818000000
O     2.122000000    -0.369000000    -6.814000000
H     2.862000000     0.225000000    -6.936000000
H     2.053000000    -0.474000000    -5.865000000
O     4.908000000    -3.085000000    -1.291000000
H     5.442000000    -2.291000000    -1.322000000
H     5.179000000    -3.525000000    -0.485000000
O     7.962000000    -3.443000000    -2.279000000
H     7.157000000    -2.927000000    -2.310000000
H     8.500000000    -3.091000000    -2.988000000
O     0.353000000    -1.567000000    -8.380000000
H     1.041000000    -1.333000000    -7.757000000
H     0.075000000    -0.731000000    -8.754000000
O     2.353000000    -6.426000000    -3.442000000
H     2.609000000    -7.145000000    -2.864000000
H     2.557000000    -5.634000000    -2.943000000
O     6.064000000    -0.664000000    -4.135000000
H     5.728000000    -0.676000000    -5.032000000
H     5.324000000    -0.365000000    -3.607000000
O     1.247000000    -2.837000000    -1.142000000
H     1.455000000    -2.116000000    -0.547000000
H     0.428000000    -2.572000000    -1.561000000
O     3.022000000    -4.988000000    -1.346000000
H     2.318000000    -4.375000000    -1.133000000
H     3.806000000    -4.443000000    -1.402000000
O     8.550000000     3.202000000    -2.917000000
H     8.373000000     2.264000000    -2.987000000
H     8.603000000     3.505000000    -3.823000000
O     3.928000000    -2.554000000    -7.011000000
H     3.197000000    -1.955000000    -6.857000000
H     3.951000000    -3.109000000    -6.231000000
O     3.274000000    -5.672000000    -5.938000000
H     2.585000000    -5.128000000    -6.319000000
H     2.945000000    -5.903000000    -5.070000000
O     8.344000000     0.633000000    -3.490000000
H     8.679000000     1.015000000    -4.301000000
H     7.723000000    -0.036000000    -3.779000000
