215
-1444.90377
C     0.473000000    -4.679000000     2.844000000
H    -0.512000000    -4.979000000     3.192000000
C     0.874000000    -3.358000000     2.887000000
C     2.202000000    -3.069000000     2.659000000
H     2.604000000    -2.060000000     2.658000000
C    -0.100000000    -2.259000000     3.498000000
O    -1.435000000    -2.737000000     3.790000000
H    -0.080000000    -1.496000000     2.706000000
O     0.423000000    -1.644000000     4.651000000
C     0.258000000    -0.247000000     4.617000000
C     1.355000000     0.536000000     4.289000000
H     2.316000000     0.112000000     4.009000000
C     1.196000000     1.913000000     4.059000000
O     2.228000000     2.607000000     3.544000000
C    -0.069000000     2.473000000     4.171000000
C    -0.323000000     3.922000000     3.772000000
H    -1.249000000     4.271000000     4.234000000
C    -0.549000000     4.164000000     2.266000000
C    -1.820000000     4.336000000     1.675000000
H    -2.708000000     4.248000000     2.296000000
H     0.539000000     4.520000000     4.075000000
C    -1.208000000     1.739000000     4.593000000
H    -2.193000000     2.190000000     4.681000000
C    -0.992000000     0.385000000     4.799000000
C    -2.313000000    -0.326000000     4.978000000
H    -2.958000000     0.364000000     5.526000000
H    -2.069000000    -1.141000000     5.664000000
C    -2.956000000    -0.920000000     3.711000000
C    -3.913000000    -0.148000000     3.076000000
H    -4.108000000     0.897000000     3.305000000
C    -2.561000000    -2.187000000     3.266000000
C    -3.175000000    -2.824000000     2.210000000
H    -2.780000000    -3.713000000     1.726000000
C    -4.124000000    -2.082000000     1.524000000
O    -4.469000000    -2.625000000     0.334000000
C    -3.942000000    -2.015000000    -0.872000000
C    -3.274000000    -3.082000000    -1.745000000
C    -2.876000000    -2.606000000    -3.045000000
H    -3.196000000    -1.672000000    -3.499000000
C    -2.946000000    -4.358000000    -1.355000000
H    -3.080000000    -4.787000000    -0.365000000
O    -4.746000000    -0.989000000    -1.472000000
H    -3.090000000    -1.460000000    -0.453000000
C    -4.454000000    -0.756000000     1.894000000
C    -5.383000000     0.085000000     1.127000000
H    -5.875000000     0.802000000     1.787000000
H    -6.184000000    -0.559000000     0.758000000
C    -4.738000000     0.917000000     0.073000000
C    -4.473000000     2.295000000     0.326000000
H    -4.702000000     2.669000000     1.321000000
C    -4.503000000     0.375000000    -1.205000000
C    -3.825000000     1.147000000    -2.153000000
H    -3.499000000     0.733000000    -3.104000000
C    -3.351000000     2.390000000    -1.805000000
O    -2.518000000     3.111000000    -2.784000000
C    -1.148000000     3.315000000    -2.390000000
C    -0.368000000     3.287000000    -3.686000000
C    -0.695000000     2.337000000    -4.628000000
H    -1.501000000     1.615000000    -4.525000000
C     0.825000000     4.004000000    -3.860000000
H     1.127000000     4.725000000    -3.104000000
O    -1.004000000     4.601000000    -1.830000000
H    -0.768000000     2.604000000    -1.642000000
C    -3.787000000     3.046000000    -0.634000000
C    -3.452000000     4.460000000    -0.273000000
H    -4.065000000     4.851000000     0.542000000
H    -3.530000000     5.098000000    -1.156000000
C    -2.032000000     4.482000000     0.312000000
C    -0.887000000     4.634000000    -0.472000000
C     0.401000000     4.540000000     0.044000000
H     1.277000000     4.700000000    -0.579000000
C     0.485000000     4.295000000     1.392000000
O     1.800000000     4.171000000     1.847000000
C     2.199000000     2.805000000     2.100000000
H     1.445000000     2.106000000     1.708000000
C     3.579000000     2.495000000     1.548000000
C     4.432000000     1.518000000     2.054000000
H     4.086000000     0.956000000     2.919000000
C     3.951000000     3.091000000     0.316000000
H     3.339000000     3.839000000    -0.182000000
C     5.240000000     2.878000000    -0.253000000
O     5.713000000     3.726000000    -1.229000000
C     6.062000000     1.925000000     0.323000000
H     7.021000000     1.819000000    -0.177000000
C     5.698000000     1.285000000     1.551000000
O     6.598000000     0.395000000     2.126000000
C     6.070000000    -0.719000000     2.724000000
C     5.433000000    -1.684000000     1.946000000
H     5.266000000    -1.551000000     0.880000000
C     6.359000000    -1.018000000     4.069000000
H     6.878000000    -0.343000000     4.745000000
C     6.033000000    -2.302000000     4.516000000
H     6.271000000    -2.449000000     5.567000000
C     5.347000000    -3.229000000     3.722000000
H     5.005000000    -4.176000000     4.132000000
C     5.063000000    -2.899000000     2.445000000
O     4.318000000    -3.852000000     1.733000000
C     3.078000000    -4.107000000     2.124000000
C     2.608000000    -5.382000000     2.005000000
H     3.348000000    -6.097000000     1.654000000
C     1.316000000    -5.690000000     2.382000000
O     0.810000000    -7.004000000     2.237000000
C    -0.329000000    -7.173000000     1.443000000
C    -0.443000000    -6.766000000     0.112000000
H     0.397000000    -6.236000000    -0.331000000
C    -1.452000000    -7.797000000     2.007000000
H    -1.388000000    -8.096000000     3.050000000
C    -2.653000000    -7.901000000     1.361000000
H    -3.493000000    -8.409000000     1.828000000
C    -2.818000000    -7.342000000     0.089000000
H    -3.739000000    -7.432000000    -0.481000000
C    -1.688000000    -6.942000000    -0.506000000
O    -1.726000000    -6.473000000    -1.776000000
C    -2.175000000    -5.229000000    -2.154000000
C    -1.773000000    -4.740000000    -3.395000000
H    -1.131000000    -5.353000000    -4.022000000
C    -2.128000000    -3.476000000    -3.854000000
O    -1.754000000    -3.155000000    -5.154000000
C    -1.940000000    -1.925000000    -5.795000000
C    -0.884000000    -1.128000000    -6.026000000
H     0.076000000    -1.432000000    -5.618000000
C    -3.195000000    -1.573000000    -6.302000000
H    -3.998000000    -2.287000000    -6.140000000
C    -3.441000000    -0.301000000    -6.843000000
H    -4.389000000    -0.067000000    -7.319000000
C    -2.382000000     0.512000000    -7.098000000
H    -2.564000000     1.488000000    -7.540000000
C    -1.118000000     0.146000000    -6.602000000
O    -0.086000000     1.079000000    -6.690000000
C     0.192000000     2.014000000    -5.673000000
C     1.402000000     2.738000000    -5.729000000
H     2.149000000     2.510000000    -6.485000000
C     1.707000000     3.751000000    -4.852000000
O     2.844000000     4.459000000    -4.962000000
C     3.490000000     5.008000000    -3.877000000
C     3.646000000     6.368000000    -3.706000000
H     3.108000000     7.115000000    -4.284000000
C     4.495000000     6.834000000    -2.715000000
H     4.694000000     7.892000000    -2.568000000
C     5.188000000     5.919000000    -1.872000000
H     5.839000000     6.104000000    -1.022000000
C     4.915000000     4.565000000    -2.003000000
C     4.102000000     4.119000000    -3.028000000
H     4.077000000     3.061000000    -3.276000000
C     0.802000000    -0.278000000    -2.491000000
H     0.609000000    -0.367000000    -3.557000000
C    -0.332000000    -0.119000000    -1.576000000
H    -1.347000000    -0.084000000    -1.963000000
C    -0.098000000    -0.089000000    -0.230000000
H    -0.958000000    -0.052000000     0.433000000
C     1.158000000    -0.243000000     0.309000000
H     1.271000000    -0.362000000     1.383000000
C     2.243000000    -0.433000000    -0.531000000
H     3.221000000    -0.517000000    -0.064000000
C     2.106000000    -0.441000000    -1.928000000
C     3.359000000    -0.729000000    -2.741000000
O     4.447000000    -0.758000000    -2.158000000
O     3.311000000    -0.903000000    -3.911000000
O     2.258000000    -5.867000000    -6.969000000
H     1.572000000    -6.525000000    -6.859000000
H     2.459000000    -5.580000000    -6.078000000
O     6.834000000    -1.634000000    -1.201000000
H     7.456000000    -1.234000000    -1.809000000
H     5.974000000    -1.377000000    -1.534000000
O     9.077000000    -1.937000000     0.421000000
H     8.502000000    -1.485000000    -0.196000000
H     9.581000000    -2.543000000    -0.121000000
O     6.857000000    -0.845000000    -7.863000000
H     7.792000000    -0.679000000    -7.747000000
H     6.639000000    -1.476000000    -7.177000000
O     2.463000000    -4.670000000    -4.374000000
H     2.230000000    -3.792000000    -4.676000000
H     2.992000000    -4.520000000    -3.590000000
O     2.679000000    -0.543000000    -6.548000000
H     2.839000000    -0.579000000    -5.605000000
H     1.883000000    -0.019000000    -6.636000000
O     3.336000000    -6.546000000    -0.979000000
H     4.277000000    -6.723000000    -0.960000000
H     2.929000000    -7.409000000    -0.897000000
O     5.415000000    -3.343000000    -3.616000000
H     4.900000000    -2.564000000    -3.404000000
H     5.412000000    -3.859000000    -2.809000000
O     6.154000000    -4.293000000    -0.715000000
H     6.415000000    -3.377000000    -0.813000000
H     5.504000000    -4.282000000    -0.012000000
O     7.737000000    -5.347000000    -2.965000000
H     8.314000000    -5.817000000    -2.363000000
H     7.013000000    -5.045000000    -2.416000000
O     2.911000000    -3.948000000    -1.636000000
H     2.919000000    -4.756000000    -1.122000000
H     2.183000000    -3.442000000    -1.275000000
O     8.282000000    -0.033000000    -2.976000000
H     8.848000000    -0.300000000    -3.700000000
H     7.477000000     0.266000000    -3.399000000
O     5.814000000     0.696000000    -4.040000000
H     5.711000000     0.021000000    -4.711000000
H     5.298000000     0.379000000    -3.299000000
O     4.624000000     0.506000000    -7.735000000
H     4.052000000     0.095000000    -7.086000000
H     5.245000000    -0.182000000    -7.976000000
O     1.029000000    -3.267000000    -7.382000000
H     1.443000000    -2.710000000    -8.041000000
H     1.720000000    -3.871000000    -7.110000000
O     0.556000000    -3.115000000    -0.706000000
H    -0.347000000    -3.422000000    -0.781000000
H     0.503000000    -2.172000000    -0.858000000
O     7.643000000     2.477000000    -5.028000000
H     7.213000000     3.112000000    -5.602000000
H     6.936000000     1.903000000    -4.733000000
O     2.290000000    -1.823000000    -9.387000000
H     2.692000000    -1.357000000    -8.654000000
H     1.533000000    -1.287000000    -9.624000000
O     6.734000000    -2.240000000    -5.729000000
H     6.297000000    -2.357000000    -4.885000000
H     7.661000000    -2.383000000    -5.539000000
