215
-1450.04509
C     0.322000000    -4.098000000     3.295000000
H    -0.676000000    -4.425000000     3.014000000
C     0.700000000    -2.898000000     3.935000000
C     2.087000000    -2.631000000     4.251000000
H     2.376000000    -1.699000000     4.731000000
C    -0.294000000    -1.744000000     4.010000000
O    -1.637000000    -2.111000000     4.374000000
H    -0.367000000    -1.294000000     3.009000000
O     0.131000000    -0.689000000     4.901000000
C     0.036000000     0.624000000     4.655000000
C     1.164000000     1.298000000     4.270000000
H     2.098000000     0.743000000     4.286000000
C     1.124000000     2.595000000     3.755000000
O     2.251000000     3.104000000     3.127000000
C    -0.157000000     3.222000000     3.686000000
C    -0.354000000     4.654000000     3.112000000
H    -1.177000000     5.214000000     3.560000000
C    -0.514000000     4.596000000     1.616000000
C    -1.784000000     4.518000000     1.060000000
H    -2.658000000     4.448000000     1.703000000
H     0.522000000     5.252000000     3.375000000
C    -1.311000000     2.473000000     3.963000000
H    -2.264000000     2.982000000     3.841000000
C    -1.224000000     1.232000000     4.521000000
C    -2.542000000     0.577000000     4.954000000
H    -3.340000000     1.261000000     5.248000000
H    -2.310000000    -0.063000000     5.808000000
C    -3.138000000    -0.258000000     3.896000000
C    -4.175000000     0.259000000     3.024000000
H    -4.629000000     1.221000000     3.248000000
C    -2.637000000    -1.585000000     3.661000000
C    -3.068000000    -2.374000000     2.645000000
H    -2.762000000    -3.402000000     2.469000000
C    -3.921000000    -1.818000000     1.684000000
O    -4.223000000    -2.510000000     0.561000000
C    -3.539000000    -2.054000000    -0.670000000
C    -3.038000000    -3.241000000    -1.535000000
C    -2.804000000    -3.011000000    -2.887000000
H    -2.915000000    -2.020000000    -3.320000000
C    -2.622000000    -4.412000000    -0.853000000
H    -2.711000000    -4.459000000     0.229000000
O    -4.529000000    -1.251000000    -1.382000000
H    -2.623000000    -1.465000000    -0.517000000
C    -4.509000000    -0.534000000     1.917000000
C    -5.536000000     0.083000000     1.010000000
H    -6.198000000     0.734000000     1.585000000
H    -6.159000000    -0.702000000     0.575000000
C    -4.801000000     0.810000000    -0.101000000
C    -4.531000000     2.162000000     0.048000000
H    -4.878000000     2.604000000     0.979000000
C    -4.343000000     0.087000000    -1.240000000
C    -3.738000000     0.829000000    -2.237000000
H    -3.514000000     0.349000000    -3.186000000
C    -3.353000000     2.155000000    -2.121000000
O    -2.516000000     2.564000000    -3.156000000
C    -1.089000000     2.668000000    -2.895000000
C    -0.273000000     2.476000000    -4.208000000
C    -0.499000000     1.386000000    -5.034000000
H    -1.373000000     0.766000000    -4.849000000
C     0.904000000     3.144000000    -4.351000000
H     1.156000000     3.868000000    -3.580000000
O    -0.970000000     4.063000000    -2.478000000
H    -0.744000000     1.974000000    -2.115000000
C    -3.736000000     2.834000000    -0.935000000
C    -3.376000000     4.319000000    -0.802000000
H    -4.071000000     4.813000000    -0.119000000
H    -3.456000000     4.830000000    -1.763000000
C    -1.972000000     4.393000000    -0.341000000
C    -0.844000000     4.277000000    -1.125000000
C     0.414000000     4.347000000    -0.564000000
H     1.278000000     4.293000000    -1.221000000
C     0.583000000     4.552000000     0.782000000
O     1.821000000     4.433000000     1.311000000
C     2.217000000     3.125000000     1.678000000
H     1.425000000     2.397000000     1.450000000
C     3.590000000     2.659000000     1.026000000
C     4.217000000     1.581000000     1.541000000
H     3.716000000     0.991000000     2.304000000
C     4.223000000     3.227000000    -0.073000000
H     3.778000000     4.149000000    -0.438000000
C     5.449000000     2.842000000    -0.633000000
O     5.910000000     3.448000000    -1.844000000
C     6.063000000     1.736000000    -0.018000000
H     7.023000000     1.343000000    -0.344000000
C     5.486000000     1.139000000     1.094000000
O     6.004000000    -0.010000000     1.550000000
C     5.870000000    -0.477000000     2.882000000
C     5.190000000    -1.707000000     3.045000000
H     4.733000000    -2.184000000     2.182000000
C     6.343000000     0.199000000     4.012000000
H     6.902000000     1.132000000     4.012000000
C     6.293000000    -0.469000000     5.272000000
H     6.543000000     0.065000000     6.185000000
C     5.497000000    -1.616000000     5.395000000
H     5.402000000    -1.990000000     6.411000000
C     5.005000000    -2.261000000     4.260000000
O     4.349000000    -3.486000000     4.350000000
C     3.012000000    -3.644000000     4.064000000
C     2.664000000    -4.795000000     3.304000000
H     3.414000000    -5.512000000     2.981000000
C     1.322000000    -5.039000000     2.999000000
O     1.043000000    -6.280000000     2.473000000
C    -0.142000000    -6.763000000     1.927000000
C    -0.495000000    -6.598000000     0.615000000
H     0.222000000    -6.056000000     0.003000000
C    -1.105000000    -7.304000000     2.791000000
H    -0.964000000    -7.238000000     3.867000000
C    -2.376000000    -7.681000000     2.380000000
H    -3.147000000    -7.988000000     3.082000000
C    -2.690000000    -7.525000000     1.064000000
H    -3.652000000    -7.783000000     0.630000000
C    -1.777000000    -6.993000000     0.179000000
O    -2.031000000    -6.767000000    -1.188000000
C    -2.304000000    -5.485000000    -1.696000000
C    -2.088000000    -5.298000000    -3.026000000
H    -1.618000000    -6.116000000    -3.566000000
C    -2.359000000    -4.096000000    -3.640000000
O    -2.073000000    -4.046000000    -5.030000000
C    -2.163000000    -2.895000000    -5.703000000
C    -1.026000000    -2.066000000    -5.666000000
H    -0.128000000    -2.202000000    -5.069000000
C    -3.226000000    -2.679000000    -6.565000000
H    -4.112000000    -3.308000000    -6.525000000
C    -3.152000000    -1.599000000    -7.504000000
H    -3.957000000    -1.466000000    -8.223000000
C    -1.991000000    -0.775000000    -7.511000000
H    -1.872000000     0.026000000    -8.237000000
C    -0.974000000    -0.982000000    -6.598000000
O     0.113000000    -0.171000000    -6.763000000
C     0.358000000     1.041000000    -6.051000000
C     1.421000000     1.824000000    -6.295000000
H     2.168000000     1.399000000    -6.960000000
C     1.738000000     2.852000000    -5.452000000
O     2.984000000     3.475000000    -5.570000000
C     3.576000000     4.195000000    -4.594000000
C     3.584000000     5.564000000    -4.685000000
H     3.195000000     6.020000000    -5.591000000
C     4.181000000     6.256000000    -3.645000000
H     4.235000000     7.335000000    -3.764000000
C     4.935000000     5.630000000    -2.652000000
H     5.539000000     6.238000000    -1.983000000
C     5.089000000     4.201000000    -2.700000000
C     4.385000000     3.527000000    -3.647000000
H     4.413000000     2.441000000    -3.678000000
C     0.996000000    -0.562000000    -1.798000000
H     0.794000000    -0.471000000    -2.862000000
C    -0.093000000    -0.341000000    -0.872000000
H    -1.049000000     0.013000000    -1.249000000
C     0.173000000    -0.514000000     0.495000000
H    -0.645000000    -0.246000000     1.307000000
C     1.462000000    -0.644000000     0.945000000
H     1.671000000    -0.674000000     2.011000000
C     2.567000000    -0.761000000     0.068000000
H     3.582000000    -0.854000000     0.445000000
C     2.292000000    -0.753000000    -1.318000000
C     3.342000000    -1.209000000    -2.318000000
O     4.519000000    -1.338000000    -1.961000000
O     3.067000000    -1.352000000    -3.521000000
O     0.947000000    -4.597000000    -6.736000000
H     0.992000000    -5.512000000    -6.458000000
H     1.094000000    -4.096000000    -5.933000000
O     7.100000000    -1.223000000    -0.772000000
H     6.784000000    -1.158000000     0.129000000
H     6.311000000    -1.378000000    -1.292000000
O     6.409000000    -5.108000000     0.687000000
H     6.747000000    -5.984000000     0.499000000
H     6.337000000    -5.080000000     1.641000000
O     1.667000000    -3.964000000    -4.259000000
H     2.012000000    -4.682000000    -3.730000000
H     2.339000000    -3.283000000    -4.207000000
O     7.494000000    -5.405000000    -3.543000000
H     7.567000000    -4.537000000    -3.147000000
H     7.914000000    -5.991000000    -2.914000000
O     5.989000000    -3.040000000    -6.475000000
H     5.769000000    -3.041000000    -5.544000000
H     6.860000000    -2.644000000    -6.515000000
O     3.644000000    -0.968000000    -6.127000000
H     4.483000000    -1.401000000    -5.967000000
H     3.209000000    -0.967000000    -5.274000000
O     5.382000000    -2.859000000    -3.973000000
H     4.749000000    -2.289000000    -3.536000000
H     5.540000000    -3.565000000    -3.346000000
O     5.016000000    -3.838000000    -1.556000000
H     4.938000000    -2.895000000    -1.415000000
H     5.256000000    -4.190000000    -0.699000000
O     8.302000000    -3.095000000    -2.459000000
H     9.225000000    -2.937000000    -2.258000000
H     7.834000000    -2.402000000    -1.994000000
O     2.912000000    -5.327000000     0.100000000
H     2.249000000    -5.379000000     0.789000000
H     2.544000000    -4.722000000    -0.543000000
O     8.791000000    -3.244000000     1.023000000
H     8.858000000    -4.177000000     1.225000000
H     8.020000000    -3.177000000     0.459000000
O     9.769000000    -0.198000000    -1.781000000
H     9.849000000     0.376000000    -2.543000000
H     8.833000000    -0.204000000    -1.582000000
O     6.614000000     0.717000000    -3.330000000
H     6.196000000     0.279000000    -4.071000000
H     6.002000000     0.595000000    -2.604000000
O     0.571000000    -3.889000000    -1.131000000
H    -0.213000000    -4.053000000    -1.656000000
H     0.706000000    -2.943000000    -1.191000000
O     4.398000000    -6.570000000    -2.171000000
H     4.787000000    -6.438000000    -3.035000000
H     4.244000000    -5.685000000    -1.839000000
O     9.264000000     1.790000000    -3.696000000
H     9.186000000     2.692000000    -4.006000000
H     8.390000000     1.571000000    -3.371000000
O     2.206000000    -1.507000000    -8.624000000
H     2.346000000    -1.436000000    -7.680000000
H     1.593000000    -0.802000000    -8.829000000
O     8.956000000    -1.980000000    -4.995000000
H     8.542000000    -2.311000000    -4.198000000
H     9.341000000    -2.755000000    -5.404000000
