215
-1458.26513
C     0.395000000    -4.048000000     2.722000000
H    -0.405000000    -3.910000000     2.000000000
C     0.605000000    -2.999000000     3.624000000
C     1.856000000    -2.939000000     4.292000000
H     1.999000000    -2.162000000     5.038000000
C    -0.567000000    -2.022000000     3.786000000
O    -1.874000000    -2.664000000     3.743000000
H    -0.492000000    -1.421000000     2.867000000
O    -0.542000000    -1.236000000     4.964000000
C    -0.556000000     0.186000000     4.617000000
C     0.619000000     0.890000000     4.522000000
H     1.591000000     0.461000000     4.751000000
C     0.518000000     2.181000000     4.099000000
O     1.722000000     2.702000000     3.796000000
C    -0.743000000     2.835000000     3.959000000
C    -0.851000000     4.307000000     3.579000000
H    -1.813000000     4.762000000     3.826000000
C    -0.815000000     4.449000000     2.058000000
C    -2.005000000     4.402000000     1.344000000
H    -2.947000000     4.365000000     1.886000000
H    -0.084000000     5.001000000     3.928000000
C    -1.917000000     2.114000000     4.136000000
H    -2.898000000     2.560000000     3.994000000
C    -1.820000000     0.731000000     4.419000000
C    -3.059000000    -0.122000000     4.547000000
H    -3.964000000     0.451000000     4.761000000
H    -2.900000000    -0.916000000     5.279000000
C    -3.375000000    -0.813000000     3.278000000
C    -4.325000000    -0.187000000     2.410000000
H    -4.688000000     0.810000000     2.645000000
C    -2.907000000    -2.144000000     2.992000000
C    -3.351000000    -2.806000000     1.847000000
H    -2.938000000    -3.769000000     1.555000000
C    -4.176000000    -2.085000000     0.891000000
O    -4.316000000    -2.663000000    -0.337000000
C    -3.550000000    -2.097000000    -1.378000000
C    -2.944000000    -3.290000000    -2.231000000
C    -2.539000000    -2.858000000    -3.499000000
H    -2.687000000    -1.860000000    -3.905000000
C    -2.779000000    -4.638000000    -1.779000000
H    -3.240000000    -4.952000000    -0.846000000
O    -4.350000000    -1.180000000    -2.122000000
H    -2.701000000    -1.573000000    -0.915000000
C    -4.700000000    -0.818000000     1.179000000
C    -5.662000000    -0.127000000     0.254000000
H    -6.374000000     0.475000000     0.822000000
H    -6.262000000    -0.824000000    -0.335000000
C    -4.877000000     0.731000000    -0.733000000
C    -4.560000000     2.023000000    -0.383000000
H    -4.812000000     2.359000000     0.619000000
C    -4.307000000     0.156000000    -1.873000000
C    -3.462000000     0.923000000    -2.669000000
H    -2.918000000     0.468000000    -3.493000000
C    -3.204000000     2.255000000    -2.362000000
O    -2.334000000     2.981000000    -3.179000000
C    -0.963000000     3.124000000    -2.656000000
C    -0.121000000     3.034000000    -3.906000000
C    -0.289000000     2.008000000    -4.872000000
H    -1.102000000     1.288000000    -4.822000000
C     1.068000000     3.803000000    -4.014000000
H     1.459000000     4.411000000    -3.202000000
O    -0.803000000     4.453000000    -2.097000000
H    -0.710000000     2.306000000    -1.966000000
C    -3.651000000     2.730000000    -1.148000000
C    -3.432000000     4.190000000    -0.782000000
H    -4.201000000     4.576000000    -0.109000000
H    -3.495000000     4.787000000    -1.694000000
C    -2.075000000     4.415000000    -0.057000000
C    -0.887000000     4.596000000    -0.718000000
C     0.346000000     4.556000000     0.017000000
H     1.296000000     4.603000000    -0.509000000
C     0.427000000     4.495000000     1.400000000
O     1.624000000     4.278000000     2.009000000
C     1.910000000     2.948000000     2.362000000
H     1.231000000     2.321000000     1.766000000
C     3.300000000     2.575000000     1.936000000
C     4.098000000     1.657000000     2.726000000
H     3.785000000     1.371000000     3.727000000
C     3.846000000     3.036000000     0.775000000
H     3.225000000     3.617000000     0.098000000
C     5.073000000     2.510000000     0.207000000
O     5.508000000     2.904000000    -1.093000000
C     5.807000000     1.547000000     0.895000000
H     6.792000000     1.292000000     0.514000000
C     5.359000000     1.158000000     2.157000000
O     6.262000000     0.263000000     2.808000000
C     5.902000000    -0.566000000     3.893000000
C     5.099000000    -1.651000000     3.731000000
H     4.799000000    -1.860000000     2.707000000
C     6.343000000    -0.237000000     5.156000000
H     7.095000000     0.529000000     5.326000000
C     5.990000000    -1.040000000     6.254000000
H     6.310000000    -0.644000000     7.214000000
C     5.205000000    -2.180000000     6.060000000
H     4.855000000    -2.734000000     6.927000000
C     4.763000000    -2.530000000     4.741000000
O     4.141000000    -3.725000000     4.523000000
C     2.838000000    -3.871000000     4.042000000
C     2.608000000    -4.852000000     3.116000000
H     3.409000000    -5.492000000     2.755000000
C     1.401000000    -4.966000000     2.458000000
O     1.251000000    -5.929000000     1.488000000
C     0.063000000    -6.381000000     1.078000000
C    -0.255000000    -6.300000000    -0.267000000
H     0.376000000    -5.797000000    -0.994000000
C    -0.746000000    -7.155000000     1.934000000
H    -0.411000000    -7.179000000     2.968000000
C    -1.976000000    -7.687000000     1.577000000
H    -2.576000000    -8.259000000     2.280000000
C    -2.226000000    -7.611000000     0.154000000
H    -3.118000000    -8.149000000    -0.155000000
C    -1.491000000    -6.859000000    -0.715000000
O    -1.829000000    -6.771000000    -2.058000000
C    -2.157000000    -5.578000000    -2.575000000
C    -1.699000000    -5.143000000    -3.801000000
H    -1.201000000    -5.831000000    -4.479000000
C    -1.970000000    -3.833000000    -4.274000000
O    -1.337000000    -3.436000000    -5.452000000
C    -1.544000000    -2.166000000    -6.142000000
C    -0.477000000    -1.253000000    -6.166000000
H     0.507000000    -1.426000000    -5.737000000
C    -2.732000000    -2.021000000    -6.856000000
H    -3.496000000    -2.792000000    -6.811000000
C    -2.920000000    -0.807000000    -7.501000000
H    -3.818000000    -0.637000000    -8.089000000
C    -1.943000000     0.165000000    -7.586000000
H    -2.010000000     0.994000000    -8.286000000
C    -0.718000000    -0.085000000    -6.928000000
O     0.230000000     0.955000000    -7.038000000
C     0.507000000     1.858000000    -6.025000000
C     1.698000000     2.606000000    -6.062000000
H     2.341000000     2.403000000    -6.914000000
C     1.977000000     3.595000000    -5.083000000
O     3.239000000     4.213000000    -5.083000000
C     3.911000000     4.501000000    -3.896000000
C     4.407000000     5.824000000    -3.748000000
H     4.219000000     6.556000000    -4.529000000
C     5.226000000     6.201000000    -2.716000000
H     5.740000000     7.156000000    -2.642000000
C     5.532000000     5.193000000    -1.740000000
H     6.198000000     5.459000000    -0.923000000
C     5.043000000     3.908000000    -1.890000000
C     4.270000000     3.522000000    -3.005000000
H     3.796000000     2.543000000    -3.010000000
C     1.122000000    -2.389000000    -2.059000000
H     0.904000000    -2.941000000    -2.970000000
C     0.278000000    -1.415000000    -1.461000000
H    -0.663000000    -1.101000000    -1.905000000
C     0.604000000    -0.914000000    -0.223000000
H    -0.180000000    -0.244000000     0.293000000
C     1.707000000    -1.301000000     0.448000000
H     2.076000000    -0.894000000     1.387000000
C     2.523000000    -2.232000000    -0.119000000
H     3.387000000    -2.527000000     0.471000000
C     2.225000000    -2.828000000    -1.325000000
C     3.038000000    -3.948000000    -1.936000000
O     4.140000000    -4.163000000    -1.454000000
O     2.668000000    -4.491000000    -2.991000000
O     4.469000000    -8.909000000    -2.849000000
H     5.026000000    -8.831000000    -3.624000000
H     4.023000000    -8.064000000    -2.788000000
O     6.173000000    -8.255000000     0.659000000
H     5.517000000    -7.562000000     0.586000000
H     6.840000000    -8.023000000     0.013000000
O     3.169000000    -0.126000000    -5.011000000
H     3.372000000    -1.010000000    -4.707000000
H     2.752000000     0.296000000    -4.260000000
O     5.337000000    -8.233000000    -5.217000000
H     4.792000000    -8.210000000    -6.004000000
H     5.055000000    -7.473000000    -4.709000000
O     1.122000000    -9.057000000    -1.623000000
H     1.588000000    -8.427000000    -2.173000000
H     1.618000000    -9.074000000    -0.804000000
O     4.774000000    -0.281000000    -1.174000000
H     4.971000000    -1.061000000    -1.693000000
H     5.186000000    -0.448000000    -0.326000000
O     5.970000000    -2.871000000     0.146000000
H     5.364000000    -3.301000000    -0.458000000
H     6.094000000    -3.505000000     0.852000000
O     5.021000000    -5.933000000    -3.990000000
H     4.681000000    -5.537000000    -3.187000000
H     5.228000000    -5.188000000    -4.555000000
O     6.763000000    -4.543000000    -2.016000000
H     5.849000000    -4.445000000    -1.752000000
H     7.004000000    -5.423000000    -1.725000000
O     7.866000000    -4.871000000    -4.505000000
H     7.557000000    -4.859000000    -3.599000000
H     7.723000000    -5.772000000    -4.795000000
O     4.586000000    -2.961000000    -4.571000000
H     4.575000000    -2.681000000    -5.487000000
H     3.796000000    -3.493000000    -4.475000000
O     8.572000000    -2.532000000    -0.344000000
H     8.707000000    -3.413000000    -0.694000000
H     7.686000000    -2.550000000     0.016000000
O     2.403000000     0.574000000    -2.251000000
H     1.741000000     0.140000000    -1.714000000
H     3.176000000     0.623000000    -1.688000000
O     1.850000000    -4.046000000    -5.387000000
H     0.949000000    -3.726000000    -5.419000000
H     2.005000000    -4.235000000    -4.462000000
O     6.411000000    -1.851000000    -3.085000000
H     5.761000000    -2.098000000    -3.743000000
H     6.393000000    -2.567000000    -2.449000000
O     4.363000000    -6.311000000     0.186000000
H     4.260000000    -5.536000000    -0.366000000
H     3.621000000    -6.275000000     0.791000000
O     1.991000000    -6.990000000    -3.465000000
H     1.978000000    -7.168000000    -4.406000000
H     2.373000000    -6.116000000    -3.392000000
O     6.523000000     0.634000000    -4.252000000
H     6.495000000    -0.174000000    -3.739000000
H     5.885000000     1.208000000    -3.828000000
O     6.299000000    -4.816000000     1.943000000
H     5.858000000    -5.510000000     2.432000000
H     6.878000000    -4.402000000     2.583000000
