215
-1439.61184
C     0.559000000    -4.457000000     3.690000000
H    -0.459000000    -4.708000000     3.404000000
C     0.899000000    -3.224000000     4.169000000
C     2.272000000    -2.931000000     4.456000000
H     2.582000000    -1.955000000     4.821000000
C    -0.133000000    -2.115000000     4.151000000
O    -1.374000000    -2.663000000     4.258000000
H    -0.120000000    -1.669000000     3.146000000
O     0.128000000    -1.055000000     5.147000000
C    -0.056000000     0.284000000     4.731000000
C     1.073000000     0.947000000     4.251000000
H     2.064000000     0.506000000     4.318000000
C     0.942000000     2.176000000     3.713000000
O     2.054000000     2.708000000     3.056000000
C    -0.355000000     2.837000000     3.869000000
C    -0.494000000     4.211000000     3.413000000
H    -1.364000000     4.715000000     3.839000000
C    -0.738000000     4.440000000     1.949000000
C    -2.059000000     4.448000000     1.442000000
H    -2.904000000     4.215000000     2.085000000
H     0.365000000     4.840000000     3.658000000
C    -1.430000000     2.171000000     4.394000000
H    -2.394000000     2.657000000     4.273000000
C    -1.286000000     0.861000000     4.779000000
C    -2.518000000    -0.016000000     5.179000000
H    -3.255000000     0.693000000     5.561000000
H    -2.324000000    -0.764000000     5.950000000
C    -3.049000000    -0.876000000     4.013000000
C    -3.991000000    -0.326000000     3.142000000
H    -4.432000000     0.632000000     3.404000000
C    -2.451000000    -2.096000000     3.629000000
C    -2.802000000    -2.755000000     2.426000000
H    -2.371000000    -3.741000000     2.271000000
C    -3.763000000    -2.186000000     1.557000000
O    -4.001000000    -2.762000000     0.317000000
C    -3.218000000    -2.210000000    -0.759000000
C    -2.638000000    -3.261000000    -1.689000000
C    -2.635000000    -2.976000000    -3.041000000
H    -2.960000000    -2.055000000    -3.520000000
C    -2.009000000    -4.334000000    -1.202000000
H    -2.027000000    -4.444000000    -0.121000000
O    -4.192000000    -1.345000000    -1.333000000
H    -2.410000000    -1.669000000    -0.245000000
C    -4.358000000    -0.964000000     1.969000000
C    -5.342000000    -0.210000000     1.102000000
H    -5.856000000     0.539000000     1.707000000
H    -6.178000000    -0.847000000     0.806000000
C    -4.705000000     0.652000000     0.014000000
C    -4.569000000     2.031000000     0.126000000
H    -5.026000000     2.544000000     0.968000000
C    -4.171000000     0.038000000    -1.079000000
C    -3.552000000     0.735000000    -2.058000000
H    -3.360000000     0.281000000    -3.027000000
C    -3.491000000     2.132000000    -1.958000000
O    -2.806000000     2.807000000    -2.954000000
C    -1.454000000     3.291000000    -2.724000000
C    -0.615000000     3.166000000    -3.940000000
C    -0.798000000     2.019000000    -4.754000000
H    -1.585000000     1.338000000    -4.441000000
C     0.545000000     4.001000000    -4.107000000
H     0.863000000     4.803000000    -3.446000000
O    -1.305000000     4.510000000    -2.114000000
H    -0.967000000     2.601000000    -2.019000000
C    -3.939000000     2.752000000    -0.829000000
C    -3.677000000     4.199000000    -0.603000000
H    -4.481000000     4.585000000     0.027000000
H    -3.778000000     4.782000000    -1.521000000
C    -2.348000000     4.504000000     0.023000000
C    -1.218000000     4.549000000    -0.803000000
C     0.045000000     4.598000000    -0.308000000
H     0.908000000     4.744000000    -0.954000000
C     0.343000000     4.623000000     1.061000000
O     1.646000000     4.387000000     1.532000000
C     1.903000000     2.991000000     1.687000000
H     1.074000000     2.391000000     1.284000000
C     3.128000000     2.453000000     0.988000000
C     3.596000000     1.174000000     1.201000000
H     3.133000000     0.443000000     1.859000000
C     3.771000000     3.185000000    -0.038000000
H     3.430000000     4.210000000    -0.160000000
C     4.793000000     2.613000000    -0.847000000
O     5.443000000     3.311000000    -1.833000000
C     5.350000000     1.416000000    -0.439000000
H     6.227000000     1.049000000    -0.964000000
C     4.790000000     0.678000000     0.589000000
O     5.261000000    -0.576000000     0.855000000
C     5.591000000    -0.927000000     2.150000000
C     4.941000000    -2.048000000     2.650000000
H     4.297000000    -2.655000000     2.019000000
C     6.472000000    -0.186000000     2.932000000
H     7.109000000     0.559000000     2.461000000
C     6.757000000    -0.612000000     4.206000000
H     7.409000000     0.004000000     4.820000000
C     6.048000000    -1.715000000     4.764000000
H     6.304000000    -1.934000000     5.798000000
C     5.162000000    -2.490000000     4.000000000
O     4.633000000    -3.696000000     4.423000000
C     3.259000000    -3.910000000     4.218000000
C     2.853000000    -5.185000000     3.844000000
H     3.574000000    -5.995000000     3.773000000
C     1.526000000    -5.481000000     3.486000000
O     1.182000000    -6.751000000     3.019000000
C     0.148000000    -6.907000000     2.108000000
C     0.340000000    -6.525000000     0.762000000
H     1.202000000    -6.007000000     0.349000000
C    -1.008000000    -7.474000000     2.561000000
H    -1.109000000    -7.757000000     3.606000000
C    -2.027000000    -7.766000000     1.618000000
H    -3.039000000    -8.079000000     1.863000000
C    -1.893000000    -7.405000000     0.288000000
H    -2.673000000    -7.589000000    -0.446000000
C    -0.693000000    -6.808000000    -0.156000000
O    -0.568000000    -6.343000000    -1.426000000
C    -1.294000000    -5.259000000    -2.005000000
C    -1.214000000    -4.975000000    -3.383000000
H    -0.673000000    -5.701000000    -3.984000000
C    -1.922000000    -3.843000000    -3.898000000
O    -1.689000000    -3.499000000    -5.214000000
C    -1.949000000    -2.339000000    -5.858000000
C    -1.022000000    -1.297000000    -5.789000000
H    -0.077000000    -1.411000000    -5.265000000
C    -3.113000000    -2.205000000    -6.684000000
H    -3.856000000    -2.996000000    -6.740000000
C    -3.267000000    -1.028000000    -7.487000000
H    -4.088000000    -1.005000000    -8.198000000
C    -2.292000000    -0.017000000    -7.405000000
H    -2.473000000     0.755000000    -8.148000000
C    -1.106000000    -0.190000000    -6.608000000
O    -0.147000000     0.728000000    -6.642000000
C     0.024000000     1.858000000    -5.824000000
C     0.997000000     2.807000000    -6.139000000
H     1.508000000     2.684000000    -7.091000000
C     1.339000000     3.868000000    -5.230000000
O     2.481000000     4.490000000    -5.455000000
C     3.289000000     4.856000000    -4.423000000
C     3.333000000     6.193000000    -4.156000000
H     2.814000000     6.941000000    -4.749000000
C     4.228000000     6.602000000    -3.116000000
H     4.389000000     7.655000000    -2.901000000
C     4.855000000     5.673000000    -2.339000000
H     5.495000000     6.045000000    -1.543000000
C     4.679000000     4.292000000    -2.513000000
C     3.851000000     3.901000000    -3.606000000
H     3.772000000     2.823000000    -3.715000000
C     0.963000000    -2.300000000    -2.358000000
H     0.856000000    -2.658000000    -3.379000000
C     0.461000000    -1.067000000    -1.951000000
H    -0.044000000    -0.435000000    -2.677000000
C     0.700000000    -0.640000000    -0.660000000
H     0.300000000     0.228000000    -0.323000000
C     1.372000000    -1.442000000     0.277000000
H     1.670000000    -1.120000000     1.272000000
C     1.891000000    -2.700000000    -0.123000000
H     2.343000000    -3.341000000     0.630000000
C     1.694000000    -3.129000000    -1.385000000
C     2.291000000    -4.429000000    -1.789000000
O     3.030000000    -5.040000000    -1.045000000
O     2.265000000    -4.748000000    -2.983000000
O     2.680000000    -8.026000000    -5.792000000
H     3.442000000    -7.519000000    -5.511000000
H     2.965000000    -8.462000000    -6.595000000
O     7.300000000    -6.586000000    -0.461000000
H     8.132000000    -6.472000000    -0.922000000
H     6.656000000    -6.707000000    -1.158000000
O     5.601000000     0.147000000    -3.627000000
H     5.817000000    -0.645000000    -3.136000000
H     4.847000000     0.517000000    -3.166000000
O     1.814000000   -10.160000000    -2.574000000
H     1.959000000   -10.510000000    -3.453000000
H     1.798000000    -9.210000000    -2.694000000
O     3.954000000    -1.171000000    -5.646000000
H     4.678000000    -0.793000000    -5.146000000
H     4.104000000    -2.116000000    -5.607000000
O    -1.614000000    -8.869000000    -2.719000000
H    -1.010000000    -8.255000000    -2.302000000
H    -1.244000000    -9.017000000    -3.589000000
O     5.504000000    -2.290000000    -2.348000000
H     4.710000000    -1.761000000    -2.277000000
H     5.493000000    -2.846000000    -1.569000000
O     7.902000000    -3.451000000    -4.488000000
H     7.007000000    -3.232000000    -4.226000000
H     8.381000000    -3.527000000    -3.663000000
O     5.492000000    -4.143000000    -0.087000000
H     6.060000000    -4.911000000    -0.138000000
H     4.605000000    -4.501000000    -0.073000000
O     5.074000000    -6.442000000    -1.966000000
H     4.334000000    -5.835000000    -1.941000000
H     4.834000000    -7.086000000    -2.633000000
O     5.256000000    -7.351000000    -4.613000000
H     6.029000000    -6.798000000    -4.726000000
H     5.608000000    -8.234000000    -4.500000000
O     4.286000000    -3.994000000    -4.443000000
H     3.476000000    -4.353000000    -4.081000000
H     4.885000000    -3.957000000    -3.697000000
O     3.253000000    -0.478000000    -2.389000000
H     2.414000000    -0.590000000    -1.944000000
H     3.073000000    -0.705000000    -3.302000000
O     0.852000000    -4.464000000    -5.715000000
H     1.167000000    -4.540000000    -4.814000000
H    -0.102000000    -4.445000000    -5.635000000
O     4.589000000    -4.742000000    -7.212000000
H     4.504000000    -4.620000000    -6.267000000
H     5.090000000    -5.552000000    -7.305000000
O     3.818000000    -6.744000000     0.683000000
H     3.616000000    -6.119000000    -0.012000000
H     3.342000000    -7.538000000     0.438000000
O     2.156000000    -7.432000000    -3.074000000
H     2.288000000    -7.575000000    -4.011000000
H     2.104000000    -6.481000000    -2.981000000
O     6.333000000    -7.458000000     1.855000000
H     6.963000000    -7.130000000     1.213000000
H     5.509000000    -7.032000000     1.621000000
O    -0.270000000    -8.956000000    -4.982000000
H    -0.443000000    -8.891000000    -5.921000000
H     0.621000000    -8.623000000    -4.878000000
