215
-1464.39872
C     0.247000000    -4.265000000     3.413000000
H    -0.775000000    -4.401000000     3.070000000
C     0.625000000    -3.034000000     3.921000000
C     1.870000000    -2.851000000     4.491000000
H     2.088000000    -1.858000000     4.875000000
C    -0.388000000    -1.853000000     3.880000000
O    -1.706000000    -2.265000000     4.165000000
H    -0.391000000    -1.476000000     2.846000000
O    -0.077000000    -0.893000000     4.806000000
C    -0.202000000     0.476000000     4.513000000
C     0.934000000     1.137000000     4.192000000
H     1.869000000     0.584000000     4.209000000
C     0.863000000     2.448000000     3.823000000
O     2.031000000     3.062000000     3.350000000
C    -0.313000000     3.162000000     3.837000000
C    -0.501000000     4.610000000     3.289000000
H    -1.417000000     5.011000000     3.729000000
C    -0.506000000     4.624000000     1.715000000
C    -1.749000000     4.558000000     1.081000000
H    -2.588000000     4.529000000     1.772000000
H     0.150000000     5.356000000     3.749000000
C    -1.479000000     2.416000000     4.044000000
H    -2.496000000     2.796000000     3.992000000
C    -1.408000000     1.109000000     4.428000000
C    -2.646000000     0.420000000     4.829000000
H    -3.458000000     1.105000000     5.080000000
H    -2.366000000    -0.174000000     5.701000000
C    -3.118000000    -0.403000000     3.645000000
C    -4.012000000     0.186000000     2.732000000
H    -4.436000000     1.183000000     2.820000000
C    -2.768000000    -1.749000000     3.443000000
C    -3.289000000    -2.463000000     2.381000000
H    -3.006000000    -3.479000000     2.117000000
C    -4.140000000    -1.865000000     1.447000000
O    -4.448000000    -2.504000000     0.250000000
C    -3.616000000    -1.979000000    -0.840000000
C    -2.998000000    -3.121000000    -1.642000000
C    -2.787000000    -2.981000000    -3.070000000
H    -2.947000000    -1.965000000    -3.422000000
C    -2.733000000    -4.411000000    -1.069000000
H    -2.978000000    -4.645000000    -0.036000000
O    -4.400000000    -1.069000000    -1.632000000
H    -2.775000000    -1.390000000    -0.445000000
C    -4.519000000    -0.521000000     1.696000000
C    -5.510000000     0.270000000     0.786000000
H    -6.129000000     0.977000000     1.340000000
H    -6.303000000    -0.312000000     0.312000000
C    -4.726000000     0.987000000    -0.326000000
C    -4.449000000     2.369000000    -0.215000000
H    -4.598000000     2.876000000     0.734000000
C    -4.252000000     0.244000000    -1.441000000
C    -3.546000000     0.921000000    -2.402000000
H    -3.273000000     0.416000000    -3.325000000
C    -3.289000000     2.280000000    -2.266000000
O    -2.437000000     2.861000000    -3.170000000
C    -1.018000000     2.942000000    -2.832000000
C    -0.059000000     2.527000000    -3.917000000
C    -0.458000000     1.542000000    -4.848000000
H    -1.421000000     1.042000000    -4.788000000
C     1.265000000     3.056000000    -4.010000000
H     1.487000000     3.853000000    -3.305000000
O    -0.757000000     4.247000000    -2.431000000
H    -0.811000000     2.337000000    -1.937000000
C    -3.708000000     3.015000000    -1.171000000
C    -3.231000000     4.426000000    -1.003000000
H    -3.969000000     4.914000000    -0.363000000
H    -3.240000000     4.903000000    -1.985000000
C    -1.892000000     4.492000000    -0.309000000
C    -0.740000000     4.492000000    -1.091000000
C     0.468000000     4.632000000    -0.509000000
H     1.370000000     4.553000000    -1.110000000
C     0.620000000     4.670000000     0.884000000
O     1.864000000     4.550000000     1.456000000
C     2.221000000     3.241000000     1.908000000
H     1.568000000     2.541000000     1.366000000
C     3.552000000     2.791000000     1.418000000
C     4.027000000     1.523000000     1.797000000
H     3.587000000     0.954000000     2.611000000
C     4.185000000     3.372000000     0.309000000
H     3.838000000     4.323000000    -0.088000000
C     5.276000000     2.747000000    -0.351000000
O     5.828000000     3.212000000    -1.524000000
C     5.721000000     1.516000000     0.080000000
H     6.575000000     1.025000000    -0.379000000
C     5.065000000     0.914000000     1.144000000
O     5.422000000    -0.385000000     1.506000000
C     5.512000000    -0.855000000     2.843000000
C     4.834000000    -1.999000000     3.240000000
H     4.241000000    -2.598000000     2.553000000
C     6.390000000    -0.287000000     3.713000000
H     6.975000000     0.574000000     3.400000000
C     6.456000000    -0.665000000     5.021000000
H     7.047000000    -0.046000000     5.691000000
C     5.813000000    -1.785000000     5.461000000
H     5.774000000    -2.147000000     6.485000000
C     4.971000000    -2.447000000     4.543000000
O     4.215000000    -3.620000000     4.830000000
C     2.888000000    -3.849000000     4.402000000
C     2.509000000    -5.060000000     3.823000000
H     3.214000000    -5.868000000     3.643000000
C     1.207000000    -5.291000000     3.273000000
O     0.979000000    -6.463000000     2.548000000
C    -0.206000000    -6.838000000     1.942000000
C    -0.459000000    -6.593000000     0.611000000
H     0.326000000    -6.122000000     0.024000000
C    -1.196000000    -7.436000000     2.682000000
H    -1.055000000    -7.595000000     3.748000000
C    -2.418000000    -7.740000000     2.116000000
H    -3.184000000    -8.183000000     2.748000000
C    -2.676000000    -7.589000000     0.801000000
H    -3.664000000    -7.844000000     0.425000000
C    -1.726000000    -6.959000000     0.023000000
O    -1.932000000    -6.690000000    -1.337000000
C    -2.215000000    -5.429000000    -1.886000000
C    -2.025000000    -5.242000000    -3.260000000
H    -1.542000000    -6.086000000    -3.745000000
C    -2.325000000    -4.017000000    -3.878000000
O    -2.150000000    -3.912000000    -5.270000000
C    -2.118000000    -2.706000000    -5.971000000
C    -0.908000000    -1.917000000    -5.995000000
H     0.002000000    -2.163000000    -5.454000000
C    -3.247000000    -2.270000000    -6.658000000
H    -4.176000000    -2.834000000    -6.663000000
C    -3.195000000    -1.102000000    -7.336000000
H    -4.137000000    -0.681000000    -7.679000000
C    -2.071000000    -0.291000000    -7.312000000
H    -1.975000000     0.677000000    -7.798000000
C    -0.926000000    -0.688000000    -6.670000000
O     0.150000000     0.146000000    -6.721000000
C     0.408000000     1.253000000    -5.906000000
C     1.592000000     1.981000000    -6.119000000
H     2.141000000     1.787000000    -7.037000000
C     2.054000000     2.851000000    -5.135000000
O     3.203000000     3.498000000    -5.442000000
C     3.879000000     4.196000000    -4.444000000
C     4.045000000     5.558000000    -4.482000000
H     3.562000000     6.180000000    -5.231000000
C     4.957000000     6.133000000    -3.597000000
H     5.191000000     7.194000000    -3.649000000
C     5.537000000     5.326000000    -2.566000000
H     6.145000000     5.776000000    -1.785000000
C     5.228000000     4.002000000    -2.470000000
C     4.480000000     3.416000000    -3.488000000
H     4.290000000     2.349000000    -3.405000000
C     1.007000000    -2.595000000    -2.598000000
H     1.188000000    -2.878000000    -3.632000000
C     0.295000000    -1.430000000    -2.310000000
H    -0.188000000    -0.901000000    -3.128000000
C     0.313000000    -0.981000000    -0.973000000
H    -0.053000000    -0.047000000    -0.621000000
C     1.004000000    -1.652000000     0.015000000
H     1.075000000    -1.263000000     1.027000000
C     1.705000000    -2.848000000    -0.348000000
H     2.148000000    -3.397000000     0.478000000
C     1.725000000    -3.252000000    -1.635000000
C     2.401000000    -4.525000000    -1.976000000
O     2.796000000    -5.265000000    -1.138000000
O     2.442000000    -4.912000000    -3.121000000
O     2.125000000    -7.118000000    -5.069000000
H     2.412000000    -6.232000000    -5.289000000
H     2.230000000    -7.613000000    -5.882000000
O     5.806000000    -8.846000000    -1.511000000
H     5.278000000    -9.535000000    -1.106000000
H     5.177000000    -8.328000000    -2.014000000
O     1.813000000    -9.566000000     0.322000000
H     2.243000000    -8.719000000     0.207000000
H     1.706000000    -9.653000000     1.270000000
O     2.245000000    -1.971000000    -6.113000000
H     2.716000000    -1.380000000    -5.525000000
H     1.908000000    -1.402000000    -6.805000000
O     1.250000000    -5.086000000    -7.905000000
H     1.538000000    -5.211000000    -7.001000000
H     2.036000000    -5.237000000    -8.430000000
O     4.644000000    -1.946000000    -1.840000000
H     5.481000000    -1.583000000    -2.129000000
H     4.771000000    -2.129000000    -0.909000000
O     7.904000000    -4.504000000    -3.605000000
H     6.981000000    -4.694000000    -3.434000000
H     8.362000000    -5.311000000    -3.373000000
O     5.130000000    -4.711000000     0.584000000
H     5.612000000    -5.457000000     0.942000000
H     4.458000000    -5.105000000     0.028000000
O     3.950000000    -7.222000000    -2.903000000
H     3.512000000    -6.947000000    -3.708000000
H     3.608000000    -6.633000000    -2.231000000
O     1.832000000   -10.426000000    -3.219000000
H     2.252000000    -9.635000000    -3.556000000
H     1.446000000   -10.155000000    -2.386000000
O     6.192000000    -7.000000000    -4.612000000
H     7.035000000    -7.149000000    -4.184000000
H     5.549000000    -7.077000000    -3.908000000
O     5.531000000    -4.471000000    -2.524000000
H     4.856000000    -5.150000000    -2.545000000
H     5.077000000    -3.691000000    -2.206000000
O     7.102000000    -3.194000000    -0.644000000
H     6.290000000    -3.420000000    -0.189000000
H     7.143000000    -3.806000000    -1.379000000
O     3.118000000    -0.479000000    -3.948000000
H     3.510000000    -1.098000000    -3.333000000
H     2.266000000    -0.268000000    -3.566000000
O     2.877000000    -4.514000000    -5.637000000
H     2.452000000    -3.687000000    -5.861000000
H     2.693000000    -4.634000000    -4.705000000
O     5.348000000    -4.827000000    -6.487000000
H     4.528000000    -4.509000000    -6.108000000
H     5.745000000    -5.351000000    -5.792000000
O     2.968000000    -7.211000000     0.602000000
H     2.598000000    -6.527000000     0.044000000
H     2.440000000    -7.181000000     1.400000000
O     0.780000000    -7.608000000    -2.809000000
H     1.079000000    -7.534000000    -3.715000000
H     1.295000000    -6.957000000    -2.332000000
O     5.845000000    -7.485000000     1.070000000
H     6.119000000    -7.918000000     0.262000000
H     4.898000000    -7.381000000     0.977000000
