215
-1450.55853
C     0.814000000    -4.211000000     3.382000000
H    -0.117000000    -4.547000000     2.932000000
C     0.963000000    -2.864000000     3.672000000
C     2.252000000    -2.509000000     4.122000000
H     2.438000000    -1.503000000     4.490000000
C    -0.155000000    -1.839000000     3.654000000
O    -1.381000000    -2.434000000     3.807000000
H    -0.111000000    -1.338000000     2.676000000
O     0.040000000    -0.875000000     4.688000000
C    -0.259000000     0.438000000     4.495000000
C     0.809000000     1.281000000     4.274000000
H     1.828000000     0.908000000     4.339000000
C     0.580000000     2.523000000     3.788000000
O     1.643000000     3.280000000     3.345000000
C    -0.755000000     3.003000000     3.784000000
C    -1.029000000     4.386000000     3.171000000
H    -1.998000000     4.784000000     3.478000000
C    -1.051000000     4.460000000     1.602000000
C    -2.304000000     4.443000000     0.998000000
H    -3.052000000     4.121000000     1.719000000
H    -0.372000000     5.158000000     3.576000000
C    -1.782000000     2.217000000     4.148000000
H    -2.793000000     2.616000000     4.172000000
C    -1.578000000     0.887000000     4.435000000
C    -2.746000000    -0.014000000     4.846000000
H    -3.617000000     0.603000000     5.076000000
H    -2.413000000    -0.747000000     5.585000000
C    -3.190000000    -0.752000000     3.606000000
C    -4.152000000    -0.223000000     2.772000000
H    -4.636000000     0.708000000     3.056000000
C    -2.567000000    -1.945000000     3.252000000
C    -2.988000000    -2.634000000     2.109000000
H    -2.586000000    -3.632000000     1.958000000
C    -3.909000000    -2.046000000     1.267000000
O    -4.158000000    -2.724000000     0.105000000
C    -3.396000000    -2.217000000    -0.975000000
C    -2.627000000    -3.261000000    -1.745000000
C    -2.511000000    -3.142000000    -3.123000000
H    -3.044000000    -2.344000000    -3.633000000
C    -1.852000000    -4.243000000    -1.100000000
H    -1.934000000    -4.233000000    -0.017000000
O    -4.266000000    -1.427000000    -1.798000000
H    -2.688000000    -1.484000000    -0.560000000
C    -4.473000000    -0.822000000     1.630000000
C    -5.527000000    -0.183000000     0.711000000
H    -6.217000000     0.446000000     1.275000000
H    -6.251000000    -0.907000000     0.330000000
C    -4.880000000     0.600000000    -0.398000000
C    -4.697000000     1.995000000    -0.255000000
H    -5.060000000     2.495000000     0.639000000
C    -4.375000000    -0.019000000    -1.572000000
C    -3.757000000     0.733000000    -2.563000000
H    -3.452000000     0.263000000    -3.494000000
C    -3.492000000     2.070000000    -2.371000000
O    -2.841000000     2.773000000    -3.402000000
C    -1.442000000     3.138000000    -3.094000000
C    -0.523000000     2.835000000    -4.335000000
C    -0.873000000     1.797000000    -5.214000000
H    -1.783000000     1.219000000    -5.072000000
C     0.741000000     3.448000000    -4.598000000
H     1.050000000     4.216000000    -3.893000000
O    -1.307000000     4.487000000    -2.594000000
H    -1.087000000     2.511000000    -2.263000000
C    -3.964000000     2.691000000    -1.225000000
C    -3.769000000     4.215000000    -1.022000000
H    -4.527000000     4.603000000    -0.338000000
H    -3.885000000     4.756000000    -1.963000000
C    -2.409000000     4.469000000    -0.409000000
C    -1.252000000     4.680000000    -1.188000000
C     0.001000000     4.768000000    -0.604000000
H     0.886000000     4.795000000    -1.234000000
C     0.104000000     4.670000000     0.803000000
O     1.356000000     4.593000000     1.403000000
C     1.705000000     3.284000000     1.897000000
H     0.947000000     2.624000000     1.449000000
C     3.136000000     2.857000000     1.439000000
C     4.070000000     2.348000000     2.362000000
H     3.756000000     2.344000000     3.403000000
C     3.396000000     2.740000000     0.053000000
H     2.607000000     3.033000000    -0.635000000
C     4.544000000     2.023000000    -0.386000000
O     4.820000000     1.852000000    -1.732000000
C     5.461000000     1.539000000     0.564000000
H     6.342000000     1.005000000     0.218000000
C     5.190000000     1.714000000     1.911000000
O     6.082000000     1.143000000     2.818000000
C     5.724000000     0.391000000     3.931000000
C     5.111000000    -0.892000000     3.747000000
H     4.869000000    -1.132000000     2.715000000
C     5.938000000     0.833000000     5.220000000
H     6.487000000     1.771000000     5.239000000
C     5.646000000     0.002000000     6.353000000
H     5.856000000     0.298000000     7.378000000
C     5.154000000    -1.217000000     6.150000000
H     4.936000000    -1.887000000     6.977000000
C     4.910000000    -1.699000000     4.805000000
O     4.519000000    -3.023000000     4.640000000
C     3.315000000    -3.372000000     4.081000000
C     3.117000000    -4.672000000     3.927000000
H     4.008000000    -5.294000000     3.947000000
C     1.862000000    -5.122000000     3.459000000
O     1.726000000    -6.468000000     3.120000000
C     0.759000000    -6.755000000     2.202000000
C     0.823000000    -6.352000000     0.899000000
H     1.690000000    -5.784000000     0.571000000
C    -0.389000000    -7.399000000     2.696000000
H    -0.547000000    -7.723000000     3.721000000
C    -1.424000000    -7.627000000     1.838000000
H    -2.347000000    -8.016000000     2.260000000
C    -1.436000000    -7.167000000     0.544000000
H    -2.243000000    -7.285000000    -0.174000000
C    -0.234000000    -6.483000000     0.082000000
O    -0.139000000    -5.973000000    -1.220000000
C    -0.981000000    -5.069000000    -1.825000000
C    -0.887000000    -4.875000000    -3.230000000
H    -0.147000000    -5.397000000    -3.832000000
C    -1.635000000    -3.886000000    -3.892000000
O    -1.208000000    -3.546000000    -5.181000000
C    -1.718000000    -2.565000000    -5.967000000
C    -0.940000000    -1.451000000    -6.222000000
H     0.108000000    -1.431000000    -5.935000000
C    -3.108000000    -2.585000000    -6.380000000
H    -3.751000000    -3.453000000    -6.256000000
C    -3.575000000    -1.451000000    -7.019000000
H    -4.601000000    -1.493000000    -7.375000000
C    -2.767000000    -0.322000000    -7.252000000
H    -3.211000000     0.471000000    -7.847000000
C    -1.461000000    -0.395000000    -6.942000000
O    -0.683000000     0.631000000    -7.327000000
C    -0.227000000     1.559000000    -6.417000000
C     0.993000000     2.160000000    -6.645000000
H     1.737000000     1.937000000    -7.405000000
C     1.467000000     3.129000000    -5.727000000
O     2.784000000     3.597000000    -5.771000000
C     3.699000000     3.704000000    -4.753000000
C     4.595000000     4.790000000    -4.714000000
H     4.624000000     5.516000000    -5.523000000
C     5.538000000     4.900000000    -3.679000000
H     6.202000000     5.760000000    -3.680000000
C     5.615000000     3.935000000    -2.714000000
H     6.344000000     4.005000000    -1.911000000
C     4.785000000     2.834000000    -2.695000000
C     3.800000000     2.746000000    -3.714000000
H     3.172000000     1.860000000    -3.757000000
C     1.017000000    -0.664000000    -1.978000000
H     1.260000000    -0.965000000    -2.994000000
C    -0.216000000    -0.043000000    -1.854000000
H    -0.830000000    -0.069000000    -2.750000000
C    -0.591000000     0.458000000    -0.589000000
H    -1.483000000     0.982000000    -0.457000000
C     0.201000000     0.224000000     0.520000000
H    -0.162000000     0.545000000     1.493000000
C     1.506000000    -0.316000000     0.351000000
H     2.084000000    -0.403000000     1.267000000
C     1.892000000    -0.835000000    -0.922000000
C     3.220000000    -1.609000000    -1.075000000
O     3.745000000    -1.815000000    -0.041000000
O     3.591000000    -1.973000000    -2.183000000
O     6.715000000    -4.619000000    -6.193000000
H     7.354000000    -4.751000000    -5.492000000
H     5.866000000    -4.655000000    -5.752000000
O     2.702000000    -9.067000000    -0.901000000
H     1.777000000    -9.122000000    -1.141000000
H     2.940000000    -8.155000000    -1.069000000
O     3.155000000    -0.983000000    -6.299000000
H     3.493000000    -0.485000000    -7.044000000
H     3.772000000    -0.802000000    -5.590000000
O     7.184000000     0.080000000    -3.020000000
H     7.407000000     0.987000000    -2.810000000
H     7.895000000    -0.435000000    -2.640000000
O     6.444000000    -1.387000000    -0.364000000
H     6.227000000    -0.779000000    -1.071000000
H     5.616000000    -1.526000000     0.095000000
O     4.316000000    -6.751000000    -1.644000000
H     5.090000000    -6.191000000    -1.593000000
H     4.077000000    -6.747000000    -2.571000000
O     7.593000000    -5.742000000     0.026000000
H     7.793000000    -6.620000000     0.350000000
H     8.233000000    -5.592000000    -0.670000000
O     8.492000000    -3.021000000    -1.131000000
H     9.077000000    -3.163000000    -0.386000000
H     7.832000000    -2.410000000    -0.804000000
O     2.129000000    -5.567000000    -6.426000000
H     2.457000000    -6.425000000    -6.157000000
H     2.398000000    -4.977000000    -5.722000000
O     5.289000000    -4.044000000    -1.951000000
H     6.224000000    -3.839000000    -1.972000000
H     4.857000000    -3.190000000    -1.923000000
O     8.640000000     0.049000000     2.443000000
H     7.769000000     0.408000000     2.611000000
H     9.207000000     0.491000000     3.076000000
O     4.668000000    -0.422000000    -3.916000000
H     4.294000000    -0.979000000    -3.234000000
H     5.473000000    -0.078000000    -3.529000000
O     2.695000000    -3.048000000    -4.438000000
H     2.373000000    -2.243000000    -4.845000000
H     3.034000000    -2.768000000    -3.588000000
O     6.857000000    -0.243000000    -5.994000000
H     6.917000000    -1.134000000    -6.338000000
H     6.894000000    -0.350000000    -5.044000000
O     4.508000000    -4.940000000    -4.485000000
H     4.913000000    -4.890000000    -3.619000000
H     3.767000000    -4.336000000    -4.438000000
O     4.793000000    -3.827000000     1.259000000
H     5.367000000    -3.990000000     0.511000000
H     4.257000000    -3.080000000     0.991000000
O     1.734000000    -7.647000000    -3.161000000
H     1.421000000    -6.772000000    -2.932000000
H     1.174000000    -8.240000000    -2.661000000
O     4.712000000    -6.510000000     1.257000000
H     4.766000000    -6.659000000     0.313000000
H     4.815000000    -5.564000000     1.357000000
O     2.938000000    -3.362000000    -7.997000000
H     2.469000000    -4.100000000    -7.607000000
H     2.650000000    -2.602000000    -7.493000000
