215
-1461.70492
C    -0.426000000    -3.536000000     3.823000000
H    -1.365000000    -3.812000000     3.349000000
C    -0.251000000    -2.215000000     4.252000000
C     0.955000000    -1.849000000     4.850000000
H     1.176000000    -0.830000000     5.156000000
C    -1.282000000    -1.068000000     3.976000000
O    -2.696000000    -1.509000000     3.927000000
H    -1.030000000    -0.632000000     2.998000000
O    -1.133000000     0.055000000     4.943000000
C    -1.273000000     1.278000000     4.404000000
C    -0.066000000     1.940000000     4.139000000
H     0.841000000     1.484000000     4.528000000
C    -0.051000000     3.078000000     3.356000000
O     1.217000000     3.570000000     3.175000000
C    -1.226000000     3.669000000     2.945000000
C    -1.217000000     5.025000000     2.242000000
H    -2.209000000     5.466000000     2.361000000
C    -0.973000000     4.886000000     0.750000000
C    -2.017000000     4.698000000    -0.187000000
H    -3.029000000     4.728000000     0.209000000
H    -0.515000000     5.706000000     2.726000000
C    -2.442000000     3.046000000     3.222000000
H    -3.402000000     3.515000000     3.022000000
C    -2.475000000     1.804000000     3.874000000
C    -3.821000000     1.056000000     3.891000000
H    -4.627000000     1.787000000     3.980000000
H    -4.081000000     0.538000000     4.817000000
C    -3.963000000     0.078000000     2.721000000
C    -4.607000000     0.568000000     1.600000000
H    -5.028000000     1.564000000     1.490000000
C    -3.429000000    -1.145000000     2.775000000
C    -3.579000000    -2.044000000     1.717000000
H    -3.041000000    -2.983000000     1.823000000
C    -4.262000000    -1.658000000     0.597000000
O    -4.257000000    -2.549000000    -0.444000000
C    -3.400000000    -2.220000000    -1.574000000
C    -2.691000000    -3.478000000    -2.188000000
C    -2.282000000    -3.571000000    -3.505000000
H    -2.696000000    -2.928000000    -4.278000000
C    -2.234000000    -4.417000000    -1.289000000
H    -2.665000000    -4.408000000    -0.291000000
O    -4.100000000    -1.483000000    -2.571000000
H    -2.543000000    -1.615000000    -1.244000000
C    -4.764000000    -0.361000000     0.534000000
C    -5.565000000     0.117000000    -0.710000000
H    -6.263000000     0.851000000    -0.300000000
H    -6.107000000    -0.695000000    -1.200000000
C    -4.589000000     0.703000000    -1.685000000
C    -4.281000000     2.079000000    -1.605000000
H    -4.781000000     2.698000000    -0.864000000
C    -3.898000000    -0.163000000    -2.557000000
C    -2.970000000     0.350000000    -3.426000000
H    -2.492000000    -0.305000000    -4.150000000
C    -2.755000000     1.722000000    -3.390000000
O    -1.613000000     2.127000000    -4.065000000
C    -0.390000000     2.208000000    -3.355000000
C     0.830000000     1.557000000    -4.006000000
C     0.602000000     0.592000000    -4.962000000
H    -0.413000000     0.365000000    -5.277000000
C     2.189000000     1.680000000    -3.526000000
H     2.403000000     2.504000000    -2.849000000
O    -0.136000000     3.630000000    -3.144000000
H    -0.550000000     1.769000000    -2.359000000
C    -3.384000000     2.626000000    -2.517000000
C    -2.895000000     4.078000000    -2.406000000
H    -3.733000000     4.740000000    -2.177000000
H    -2.603000000     4.312000000    -3.432000000
C    -1.715000000     4.334000000    -1.488000000
C    -0.408000000     4.246000000    -1.904000000
C     0.693000000     4.539000000    -1.046000000
H     1.720000000     4.428000000    -1.385000000
C     0.348000000     4.716000000     0.299000000
O     1.398000000     4.734000000     1.213000000
C     1.717000000     3.529000000     1.914000000
H     1.213000000     2.641000000     1.504000000
C     3.167000000     3.227000000     1.909000000
C     3.712000000     2.164000000     2.706000000
H     3.039000000     1.602000000     3.348000000
C     3.987000000     3.855000000     0.973000000
H     3.596000000     4.502000000     0.192000000
C     5.310000000     3.517000000     0.897000000
O     6.116000000     3.989000000    -0.101000000
C     5.842000000     2.546000000     1.799000000
H     6.914000000     2.372000000     1.747000000
C     5.046000000     1.784000000     2.618000000
O     5.612000000     0.810000000     3.381000000
C     5.138000000     0.299000000     4.527000000
C     4.337000000    -0.873000000     4.473000000
H     4.224000000    -1.353000000     3.504000000
C     5.423000000     0.922000000     5.690000000
H     6.090000000     1.776000000     5.770000000
C     4.989000000     0.318000000     6.905000000
H     5.198000000     0.735000000     7.887000000
C     4.178000000    -0.835000000     6.879000000
H     3.753000000    -1.271000000     7.780000000
C     3.812000000    -1.406000000     5.617000000
O     3.147000000    -2.563000000     5.605000000
C     1.952000000    -2.781000000     4.977000000
C     1.726000000    -4.093000000     4.601000000
H     2.518000000    -4.809000000     4.804000000
C     0.545000000    -4.502000000     4.004000000
O     0.407000000    -5.818000000     3.693000000
C    -0.527000000    -6.233000000     2.777000000
C    -0.399000000    -5.957000000     1.376000000
H     0.522000000    -5.526000000     0.992000000
C    -1.501000000    -7.108000000     3.194000000
H    -1.502000000    -7.422000000     4.234000000
C    -2.498000000    -7.500000000     2.335000000
H    -3.291000000    -8.126000000     2.738000000
C    -2.411000000    -7.244000000     0.926000000
H    -3.155000000    -7.628000000     0.233000000
C    -1.308000000    -6.559000000     0.475000000
O    -1.126000000    -6.555000000    -0.863000000
C    -1.497000000    -5.561000000    -1.715000000
C    -1.180000000    -5.679000000    -3.084000000
H    -0.733000000    -6.623000000    -3.385000000
C    -1.527000000    -4.643000000    -3.940000000
O    -1.124000000    -4.767000000    -5.288000000
C    -1.089000000    -3.592000000    -6.058000000
C     0.068000000    -2.807000000    -5.899000000
H     0.593000000    -2.947000000    -4.958000000
C    -1.949000000    -3.310000000    -7.067000000
H    -2.854000000    -3.906000000    -7.153000000
C    -1.800000000    -2.086000000    -7.755000000
H    -2.579000000    -1.798000000    -8.457000000
C    -0.685000000    -1.261000000    -7.573000000
H    -0.520000000    -0.419000000    -8.241000000
C     0.340000000    -1.686000000    -6.721000000
O     1.480000000    -0.991000000    -6.593000000
C     1.644000000    -0.143000000    -5.499000000
C     2.932000000     0.192000000    -5.164000000
H     3.746000000    -0.061000000    -5.838000000
C     3.265000000     1.050000000    -4.128000000
O     4.569000000     1.354000000    -3.800000000
C     5.007000000     2.521000000    -3.263000000
C     4.875000000     3.646000000    -4.038000000
H     4.467000000     3.583000000    -5.044000000
C     5.005000000     4.876000000    -3.457000000
H     4.856000000     5.856000000    -3.903000000
C     5.398000000     4.951000000    -2.132000000
H     5.478000000     5.861000000    -1.542000000
C     5.695000000     3.837000000    -1.410000000
C     5.489000000     2.594000000    -1.945000000
H     5.462000000     1.721000000    -1.297000000
C     0.402000000    -1.536000000    -1.428000000
H     0.222000000    -1.764000000    -2.475000000
C    -0.296000000    -0.519000000    -0.811000000
H    -0.990000000     0.049000000    -1.426000000
C    -0.048000000    -0.143000000     0.533000000
H    -0.671000000     0.664000000     0.995000000
C     0.794000000    -0.932000000     1.307000000
H     0.913000000    -0.623000000     2.342000000
C     1.343000000    -2.043000000     0.723000000
H     2.042000000    -2.692000000     1.245000000
C     1.100000000    -2.444000000    -0.595000000
C     1.716000000    -3.702000000    -1.196000000
O     2.518000000    -4.312000000    -0.545000000
O     1.428000000    -4.058000000    -2.329000000
O     1.140000000    -9.086000000    -3.407000000
H     1.430000000    -9.854000000    -2.915000000
H     1.334000000    -8.345000000    -2.832000000
O     4.719000000    -6.619000000    -4.106000000
H     3.818000000    -6.330000000    -4.253000000
H     4.981000000    -7.017000000    -4.936000000
O     3.571000000    -7.465000000     4.150000000
H     2.798000000    -7.503000000     4.713000000
H     3.315000000    -6.891000000     3.428000000
O     4.780000000    -9.188000000    -2.216000000
H     4.463000000    -9.089000000    -3.113000000
H     3.985000000    -9.233000000    -1.684000000
O     3.763000000    -0.755000000    -1.599000000
H     3.852000000    -0.096000000    -2.288000000
H     2.891000000    -1.125000000    -1.733000000
O     4.721000000    -2.871000000     0.078000000
H     4.083000000    -3.493000000    -0.272000000
H     4.538000000    -2.054000000    -0.384000000
O     1.588000000    -9.526000000     2.096000000
H     2.148000000    -9.708000000     2.850000000
H     2.140000000    -9.014000000     1.505000000
O     3.320000000    -7.975000000     0.332000000
H     4.277000000    -7.984000000     0.326000000
H     3.092000000    -7.112000000     0.679000000
O     4.860000000    -5.823000000    -1.264000000
H     4.028000000    -5.367000000    -1.143000000
H     4.656000000    -6.539000000    -1.866000000
O     7.718000000    -6.277000000    -1.164000000
H     7.937000000    -6.481000000    -2.073000000
H     6.790000000    -6.044000000    -1.188000000
O     3.556000000    -3.883000000    -3.824000000
H     2.849000000    -3.910000000    -3.180000000
H     3.238000000    -4.419000000    -4.551000000
O     6.166000000    -1.494000000     2.112000000
H     6.045000000    -0.583000000     2.380000000
H     6.094000000    -1.475000000     1.158000000
O     7.617000000    -3.434000000     0.123000000
H     6.732000000    -3.178000000     0.385000000
H     7.609000000    -4.391000000     0.156000000
O     3.307000000    -5.564000000     1.917000000
H     2.976000000    -5.079000000     1.161000000
H     4.234000000    -5.330000000     1.965000000
O     2.230000000    -6.857000000    -2.055000000
H     2.674000000    -7.005000000    -1.220000000
H     2.016000000    -5.924000000    -2.051000000
O     2.374000000    -5.873000000    -5.322000000
H     2.356000000    -6.513000000    -6.033000000
H     1.522000000    -5.963000000    -4.897000000
O     5.392000000    -1.924000000    -4.508000000
H     4.759000000    -2.458000000    -4.028000000
H     5.394000000    -2.290000000    -5.392000000
O     6.256000000    -4.522000000     2.819000000
H     6.251000000    -4.692000000     3.761000000
H     6.144000000    -3.574000000     2.746000000
O     6.931000000    -1.333000000    -2.046000000
H     6.677000000    -2.059000000    -1.476000000
H     6.400000000    -1.449000000    -2.833000000
