215
-1438.42192
C     0.547000000    -3.659000000     3.123000000
H    -0.463000000    -4.005000000     2.918000000
C     0.641000000    -2.402000000     3.757000000
C     1.954000000    -1.976000000     4.074000000
H     2.112000000    -0.957000000     4.419000000
C    -0.585000000    -1.445000000     3.817000000
O    -1.806000000    -2.273000000     3.745000000
H    -0.573000000    -0.696000000     3.011000000
O    -0.538000000    -0.637000000     4.993000000
C    -0.977000000     0.706000000     4.840000000
C     0.065000000     1.563000000     4.621000000
H     1.105000000     1.347000000     4.848000000
C    -0.063000000     2.791000000     4.084000000
O     1.108000000     3.404000000     3.726000000
C    -1.323000000     3.163000000     3.625000000
C    -1.426000000     4.496000000     2.890000000
H    -2.438000000     4.891000000     3.001000000
C    -1.167000000     4.430000000     1.368000000
C    -2.272000000     4.213000000     0.568000000
H    -3.235000000     4.209000000     1.072000000
H    -0.734000000     5.195000000     3.366000000
C    -2.398000000     2.299000000     3.832000000
H    -3.332000000     2.503000000     3.315000000
C    -2.224000000     1.052000000     4.416000000
C    -3.413000000     0.035000000     4.482000000
H    -4.315000000     0.639000000     4.600000000
H    -3.219000000    -0.459000000     5.437000000
C    -3.568000000    -0.677000000     3.153000000
C    -4.491000000    -0.274000000     2.223000000
H    -4.952000000     0.708000000     2.299000000
C    -2.777000000    -1.827000000     2.851000000
C    -3.007000000    -2.503000000     1.678000000
H    -2.291000000    -3.293000000     1.469000000
C    -3.982000000    -2.155000000     0.768000000
O    -4.178000000    -2.918000000    -0.330000000
C    -3.421000000    -2.519000000    -1.528000000
C    -2.742000000    -3.683000000    -2.253000000
C    -2.386000000    -3.504000000    -3.608000000
H    -2.900000000    -2.770000000    -4.223000000
C    -2.196000000    -4.703000000    -1.510000000
H    -2.499000000    -4.889000000    -0.483000000
O    -4.268000000    -1.624000000    -2.309000000
H    -2.573000000    -1.892000000    -1.214000000
C    -4.706000000    -0.944000000     1.002000000
C    -5.593000000    -0.425000000    -0.109000000
H    -6.213000000     0.322000000     0.392000000
H    -6.206000000    -1.247000000    -0.484000000
C    -4.782000000     0.369000000    -1.151000000
C    -4.539000000     1.721000000    -0.970000000
H    -4.852000000     2.252000000    -0.075000000
C    -4.109000000    -0.248000000    -2.200000000
C    -3.328000000     0.452000000    -3.135000000
H    -2.864000000    -0.212000000    -3.859000000
C    -3.098000000     1.783000000    -2.939000000
O    -2.207000000     2.451000000    -3.731000000
C    -0.937000000     2.744000000    -3.269000000
C     0.115000000     2.367000000    -4.267000000
C     0.031000000     1.207000000    -5.064000000
H    -0.744000000     0.482000000    -4.829000000
C     1.304000000     3.116000000    -4.345000000
H     1.451000000     4.031000000    -3.776000000
O    -0.858000000     4.044000000    -2.796000000
H    -0.686000000     2.038000000    -2.464000000
C    -3.665000000     2.437000000    -1.841000000
C    -3.412000000     3.915000000    -1.584000000
H    -4.273000000     4.299000000    -1.033000000
H    -3.272000000     4.500000000    -2.495000000
C    -2.152000000     4.108000000    -0.807000000
C    -0.970000000     4.230000000    -1.418000000
C     0.139000000     4.487000000    -0.613000000
H     1.161000000     4.564000000    -0.977000000
C     0.074000000     4.591000000     0.757000000
O     1.235000000     4.614000000     1.550000000
C     1.447000000     3.393000000     2.289000000
H     0.861000000     2.622000000     1.767000000
C     2.949000000     3.116000000     2.135000000
C     3.858000000     2.904000000     3.196000000
H     3.580000000     3.104000000     4.228000000
C     3.392000000     2.934000000     0.832000000
H     2.752000000     3.063000000    -0.037000000
C     4.774000000     2.667000000     0.673000000
O     5.263000000     2.700000000    -0.616000000
C     5.554000000     2.278000000     1.745000000
H     6.581000000     1.978000000     1.553000000
C     5.083000000     2.317000000     3.010000000
O     5.880000000     1.975000000     4.017000000
C     5.556000000     0.830000000     4.741000000
C     5.205000000    -0.320000000     4.088000000
H     5.240000000    -0.353000000     3.002000000
C     5.598000000     0.841000000     6.160000000
H     5.931000000     1.755000000     6.646000000
C     5.105000000    -0.126000000     6.905000000
H     5.112000000    -0.058000000     7.990000000
C     4.678000000    -1.288000000     6.229000000
H     4.399000000    -2.160000000     6.815000000
C     4.722000000    -1.407000000     4.882000000
O     4.403000000    -2.579000000     4.260000000
C     3.071000000    -2.830000000     3.827000000
C     2.800000000    -4.114000000     3.362000000
H     3.702000000    -4.708000000     3.242000000
C     1.594000000    -4.605000000     2.889000000
O     1.498000000    -5.799000000     2.192000000
C     0.334000000    -6.316000000     1.738000000
C     0.200000000    -6.374000000     0.370000000
H     0.974000000    -5.815000000    -0.149000000
C    -0.665000000    -6.858000000     2.584000000
H    -0.519000000    -6.732000000     3.654000000
C    -1.796000000    -7.417000000     2.047000000
H    -2.545000000    -7.817000000     2.725000000
C    -1.915000000    -7.463000000     0.669000000
H    -2.853000000    -7.794000000     0.230000000
C    -0.923000000    -7.012000000    -0.199000000
O    -1.107000000    -6.891000000    -1.516000000
C    -1.404000000    -5.649000000    -2.104000000
C    -1.068000000    -5.518000000    -3.442000000
H    -0.442000000    -6.306000000    -3.854000000
C    -1.497000000    -4.407000000    -4.171000000
O    -1.301000000    -4.360000000    -5.517000000
C    -1.172000000    -3.199000000    -6.285000000
C    -0.133000000    -2.297000000    -5.996000000
H     0.726000000    -2.528000000    -5.372000000
C    -2.043000000    -2.979000000    -7.295000000
H    -2.741000000    -3.779000000    -7.528000000
C    -2.098000000    -1.762000000    -8.006000000
H    -2.799000000    -1.619000000    -8.825000000
C    -1.054000000    -0.807000000    -7.706000000
H    -1.000000000     0.097000000    -8.308000000
C    -0.064000000    -1.111000000    -6.769000000
O     1.048000000    -0.322000000    -6.720000000
C     1.078000000     0.797000000    -5.920000000
C     2.296000000     1.498000000    -5.891000000
H     3.097000000     1.295000000    -6.598000000
C     2.385000000     2.705000000    -5.125000000
O     3.494000000     3.499000000    -5.078000000
C     3.920000000     3.989000000    -3.838000000
C     4.038000000     5.318000000    -3.687000000
H     3.851000000     5.957000000    -4.547000000
C     4.401000000     5.835000000    -2.414000000
H     4.421000000     6.908000000    -2.239000000
C     4.856000000     4.999000000    -1.416000000
H     5.237000000     5.428000000    -0.493000000
C     4.818000000     3.571000000    -1.608000000
C     4.309000000     3.085000000    -2.831000000
H     4.262000000     2.021000000    -3.048000000
C     0.207000000    -1.269000000    -1.124000000
H     0.024000000    -1.783000000    -2.064000000
C    -0.549000000    -0.130000000    -0.743000000
H    -1.366000000     0.186000000    -1.386000000
C    -0.308000000     0.549000000     0.447000000
H    -0.816000000     1.439000000     0.804000000
C     0.744000000     0.167000000     1.205000000
H     1.127000000     0.770000000     2.024000000
C     1.549000000    -0.900000000     0.836000000
H     2.437000000    -1.099000000     1.432000000
C     1.246000000    -1.650000000    -0.299000000
C     2.178000000    -2.789000000    -0.839000000
O     3.031000000    -3.339000000    -0.193000000
O     2.008000000    -3.292000000    -1.969000000
O     6.724000000     0.040000000    -4.803000000
H     6.450000000    -0.874000000    -4.875000000
H     6.985000000     0.141000000    -3.888000000
O     1.576000000    -9.048000000    -2.914000000
H     1.780000000    -9.711000000    -3.573000000
H     2.287000000    -8.411000000    -2.987000000
O     3.597000000    -1.968000000    -6.905000000
H     3.144000000    -2.768000000    -6.639000000
H     3.218000000    -1.284000000    -6.353000000
O     2.561000000     0.388000000    -2.022000000
H     1.657000000     0.154000000    -1.809000000
H     2.942000000     0.655000000    -1.185000000
O     9.040000000    -2.571000000    -1.401000000
H     9.516000000    -3.194000000    -1.950000000
H     8.294000000    -3.069000000    -1.065000000
O     6.362000000    -3.854000000     1.934000000
H     5.841000000    -4.657000000     1.960000000
H     6.035000000    -3.381000000     1.169000000
O     4.115000000    -7.814000000    -2.360000000
H     4.854000000    -7.295000000    -2.042000000
H     4.467000000    -8.299000000    -3.107000000
O     2.455000000    -6.742000000     5.304000000
H     2.210000000    -5.982000000     4.776000000
H     1.651000000    -6.984000000     5.764000000
O     5.998000000    -5.855000000    -1.167000000
H     5.725000000    -5.410000000    -1.970000000
H     5.254000000    -5.755000000    -0.573000000
O     4.601000000    -4.039000000    -2.670000000
H     4.444000000    -4.355000000    -3.560000000
H     3.727000000    -3.889000000    -2.311000000
O     8.224000000    -4.859000000     0.033000000
H     7.541000000    -5.391000000    -0.377000000
H     7.791000000    -4.453000000     0.785000000
O     2.718000000    -1.755000000    -4.075000000
H     2.761000000    -0.878000000    -3.693000000
H     2.554000000    -2.333000000    -3.329000000
O     7.692000000    -0.107000000    -2.432000000
H     8.611000000     0.150000000    -2.510000000
H     7.690000000    -0.787000000    -1.759000000
O     2.664000000    -4.445000000    -6.459000000
H     2.714000000    -5.276000000    -6.931000000
H     2.437000000    -4.693000000    -5.562000000
O     5.648000000    -2.658000000    -0.511000000
H     5.593000000    -3.024000000    -1.393000000
H     4.777000000    -2.298000000    -0.346000000
O     4.093000000    -5.527000000     0.671000000
H     3.620000000    -4.763000000     0.340000000
H     3.425000000    -6.209000000     0.745000000
O     1.929000000    -5.513000000    -4.014000000
H     1.758000000    -6.290000000    -3.482000000
H     1.913000000    -4.787000000    -3.390000000
O     5.371000000    -5.202000000    -5.206000000
H     4.632000000    -5.358000000    -5.794000000
H     5.644000000    -6.077000000    -4.929000000
O     5.779000000    -2.535000000    -4.761000000
H     4.840000000    -2.403000000    -4.637000000
H     5.853000000    -3.428000000    -5.099000000
