215
-1473.91110
C     0.562000000    -4.355000000     2.671000000
H    -0.446000000    -4.604000000     2.347000000
C     0.709000000    -3.120000000     3.314000000
C     1.952000000    -2.598000000     3.554000000
H     1.981000000    -1.615000000     4.017000000
C    -0.461000000    -2.153000000     3.396000000
O    -1.698000000    -2.831000000     3.579000000
H    -0.475000000    -1.557000000     2.472000000
O    -0.254000000    -1.364000000     4.605000000
C    -0.559000000    -0.025000000     4.603000000
C     0.530000000     0.822000000     4.412000000
H     1.508000000     0.349000000     4.407000000
C     0.339000000     2.176000000     4.053000000
O     1.427000000     2.904000000     3.738000000
C    -0.966000000     2.697000000     4.005000000
C    -1.136000000     4.175000000     3.559000000
H    -2.073000000     4.562000000     3.965000000
C    -1.106000000     4.367000000     2.066000000
C    -2.312000000     4.272000000     1.388000000
H    -3.194000000     4.046000000     1.983000000
H    -0.393000000     4.808000000     4.050000000
C    -2.045000000     1.853000000     4.256000000
H    -3.040000000     2.291000000     4.245000000
C    -1.835000000     0.474000000     4.499000000
C    -3.073000000    -0.429000000     4.609000000
H    -3.902000000     0.194000000     4.952000000
H    -2.992000000    -1.176000000     5.401000000
C    -3.403000000    -1.110000000     3.349000000
C    -4.334000000    -0.608000000     2.457000000
H    -4.854000000     0.324000000     2.661000000
C    -2.830000000    -2.323000000     2.986000000
C    -3.148000000    -2.907000000     1.724000000
H    -2.435000000    -3.679000000     1.446000000
C    -4.079000000    -2.321000000     0.854000000
O    -4.203000000    -2.829000000    -0.385000000
C    -3.330000000    -2.286000000    -1.356000000
C    -2.590000000    -3.367000000    -2.157000000
C    -2.017000000    -3.038000000    -3.383000000
H    -2.187000000    -2.027000000    -3.747000000
C    -2.493000000    -4.659000000    -1.730000000
H    -2.870000000    -4.992000000    -0.766000000
O    -4.113000000    -1.332000000    -2.217000000
H    -2.561000000    -1.727000000    -0.803000000
C    -4.658000000    -1.120000000     1.194000000
C    -5.536000000    -0.432000000     0.206000000
H    -6.325000000     0.166000000     0.667000000
H    -5.958000000    -1.222000000    -0.418000000
C    -4.735000000     0.496000000    -0.684000000
C    -4.619000000     1.871000000    -0.419000000
H    -5.138000000     2.258000000     0.454000000
C    -4.074000000    -0.043000000    -1.835000000
C    -3.364000000     0.809000000    -2.612000000
H    -2.827000000     0.457000000    -3.489000000
C    -3.345000000     2.173000000    -2.360000000
O    -2.438000000     2.890000000    -3.138000000
C    -1.101000000     3.158000000    -2.703000000
C    -0.050000000     3.036000000    -3.806000000
C    -0.349000000     2.129000000    -4.864000000
H    -1.276000000     1.563000000    -4.839000000
C     1.143000000     3.730000000    -3.826000000
H     1.427000000     4.333000000    -2.967000000
O    -1.037000000     4.460000000    -2.127000000
H    -0.893000000     2.397000000    -1.936000000
C    -3.874000000     2.732000000    -1.227000000
C    -3.663000000     4.207000000    -0.806000000
H    -4.522000000     4.555000000    -0.229000000
H    -3.682000000     4.798000000    -1.724000000
C    -2.350000000     4.410000000    -0.020000000
C    -1.128000000     4.578000000    -0.768000000
C     0.095000000     4.549000000    -0.051000000
H     1.020000000     4.464000000    -0.616000000
C     0.062000000     4.546000000     1.339000000
O     1.272000000     4.416000000     1.923000000
C     1.641000000     3.119000000     2.289000000
H     1.076000000     2.465000000     1.608000000
C     3.088000000     2.899000000     1.942000000
C     3.972000000     2.205000000     2.805000000
H     3.693000000     1.801000000     3.775000000
C     3.474000000     3.131000000     0.606000000
H     2.975000000     3.744000000    -0.139000000
C     4.787000000     2.756000000     0.285000000
O     5.346000000     3.003000000    -0.998000000
C     5.683000000     2.201000000     1.148000000
H     6.689000000     1.969000000     0.807000000
C     5.276000000     1.899000000     2.403000000
O     6.153000000     1.392000000     3.347000000
C     5.649000000     0.353000000     4.108000000
C     5.273000000    -0.804000000     3.455000000
H     5.344000000    -0.837000000     2.370000000
C     5.713000000     0.341000000     5.522000000
H     6.241000000     1.116000000     6.071000000
C     5.184000000    -0.664000000     6.291000000
H     5.188000000    -0.718000000     7.376000000
C     4.685000000    -1.757000000     5.612000000
H     4.260000000    -2.582000000     6.178000000
C     4.813000000    -1.879000000     4.199000000
O     4.467000000    -3.025000000     3.538000000
C     3.142000000    -3.313000000     3.264000000
C     2.971000000    -4.572000000     2.632000000
H     3.802000000    -5.206000000     2.332000000
C     1.687000000    -5.084000000     2.310000000
O     1.593000000    -6.261000000     1.578000000
C     0.324000000    -6.761000000     1.164000000
C    -0.026000000    -6.492000000    -0.144000000
H     0.519000000    -5.769000000    -0.746000000
C    -0.445000000    -7.598000000     1.982000000
H    -0.155000000    -7.753000000     3.018000000
C    -1.607000000    -8.096000000     1.458000000
H    -2.206000000    -8.800000000     2.030000000
C    -2.077000000    -7.760000000     0.215000000
H    -3.065000000    -8.056000000    -0.129000000
C    -1.221000000    -7.047000000    -0.602000000
O    -1.618000000    -6.857000000    -1.950000000
C    -1.865000000    -5.608000000    -2.524000000
C    -1.312000000    -5.299000000    -3.711000000
H    -0.819000000    -6.124000000    -4.221000000
C    -1.312000000    -3.960000000    -4.152000000
O    -0.851000000    -3.621000000    -5.467000000
C    -1.135000000    -2.368000000    -6.015000000
C    -0.161000000    -1.362000000    -6.198000000
H     0.796000000    -1.526000000    -5.708000000
C    -2.395000000    -2.269000000    -6.604000000
H    -3.062000000    -3.127000000    -6.632000000
C    -2.830000000    -1.015000000    -7.061000000
H    -3.855000000    -1.016000000    -7.423000000
C    -1.923000000     0.104000000    -7.071000000
H    -2.318000000     1.098000000    -7.265000000
C    -0.599000000    -0.125000000    -6.687000000
O     0.293000000     0.890000000    -6.835000000
C     0.592000000     1.881000000    -5.879000000
C     1.682000000     2.681000000    -6.031000000
H     2.436000000     2.495000000    -6.791000000
C     2.015000000     3.542000000    -4.942000000
O     3.150000000     4.311000000    -5.008000000
C     3.902000000     4.655000000    -3.982000000
C     4.399000000     5.987000000    -3.816000000
H     4.381000000     6.773000000    -4.566000000
C     5.108000000     6.246000000    -2.689000000
H     5.424000000     7.264000000    -2.476000000
C     5.352000000     5.296000000    -1.718000000
H     6.012000000     5.572000000    -0.900000000
C     4.908000000     4.019000000    -1.882000000
C     4.212000000     3.664000000    -3.006000000
H     3.797000000     2.662000000    -3.079000000
C     1.364000000    -2.134000000    -1.403000000
H     1.253000000    -2.929000000    -2.136000000
C     0.390000000    -1.134000000    -1.249000000
H    -0.532000000    -1.187000000    -1.823000000
C     0.473000000    -0.298000000    -0.154000000
H    -0.330000000     0.465000000     0.092000000
C     1.567000000    -0.337000000     0.701000000
H     1.506000000     0.316000000     1.568000000
C     2.606000000    -1.298000000     0.437000000
H     3.470000000    -1.324000000     1.096000000
C     2.519000000    -2.215000000    -0.611000000
C     3.522000000    -3.372000000    -0.720000000
O     4.267000000    -3.591000000     0.192000000
O     3.489000000    -4.076000000    -1.696000000
O     3.514000000    -9.690000000    -2.797000000
H     3.480000000    -9.725000000    -3.753000000
H     3.883000000    -8.829000000    -2.602000000
O     5.782000000    -8.716000000     0.144000000
H     5.390000000    -7.853000000     0.282000000
H     6.493000000    -8.559000000    -0.477000000
O     3.639000000    -1.716000000    -6.437000000
H     3.120000000    -2.451000000    -6.110000000
H     3.971000000    -1.288000000    -5.648000000
O     4.423000000     0.247000000    -1.770000000
H     4.987000000    -0.521000000    -1.684000000
H     4.997000000     0.989000000    -1.580000000
O     8.731000000     0.650000000    -0.959000000
H     7.966000000     0.077000000    -0.904000000
H     9.092000000     0.654000000    -0.072000000
O     8.757000000    -3.098000000    -1.959000000
H     8.891000000    -3.296000000    -2.886000000
H     8.018000000    -3.648000000    -1.701000000
O     6.668000000    -3.055000000     1.434000000
H     5.830000000    -3.208000000     0.996000000
H     6.594000000    -3.526000000     2.264000000
O     4.515000000    -7.067000000    -2.480000000
H     4.486000000    -6.675000000    -1.607000000
H     4.576000000    -6.320000000    -3.076000000
O     6.567000000    -4.700000000    -1.105000000
H     5.644000000    -4.507000000    -0.944000000
H     6.618000000    -5.656000000    -1.090000000
O     5.464000000    -2.748000000    -3.280000000
H     5.500000000    -3.216000000    -4.114000000
H     4.879000000    -3.275000000    -2.735000000
O     9.245000000    -2.952000000     0.881000000
H     9.286000000    -2.984000000    -0.075000000
H     8.309000000    -2.945000000     1.081000000
O     3.113000000    -0.328000000    -4.167000000
H     2.210000000    -0.016000000    -4.225000000
H     3.306000000    -0.332000000    -3.230000000
O     2.238000000    -4.281000000    -6.259000000
H     2.948000000    -4.871000000    -6.513000000
H     2.050000000    -4.511000000    -5.349000000
O     6.551000000    -1.027000000    -0.728000000
H     6.715000000    -1.776000000    -1.302000000
H     6.530000000    -1.400000000     0.153000000
O     4.255000000    -6.330000000     0.214000000
H     4.291000000    -5.376000000     0.147000000
H     3.506000000    -6.502000000     0.785000000
O     1.999000000    -5.198000000    -3.624000000
H     2.487000000    -6.017000000    -3.710000000
H     2.385000000    -4.769000000    -2.861000000
O     5.475000000    -5.643000000    -4.931000000
H     4.910000000    -6.048000000    -5.589000000
H     6.247000000    -6.207000000    -4.899000000
O     6.774000000    -0.533000000    -3.587000000
H     6.194000000    -1.273000000    -3.409000000
H     7.645000000    -0.922000000    -3.655000000
O     6.475000000    -5.189000000     3.662000000
H     5.774000000    -5.841000000     3.637000000
H     6.236000000    -4.608000000     4.384000000
