215
-1467.20556
C     0.137000000    -3.715000000     3.093000000
H    -0.675000000    -3.994000000     2.425000000
C    -0.003000000    -2.589000000     3.906000000
C     1.029000000    -2.293000000     4.784000000
H     1.035000000    -1.421000000     5.433000000
C    -1.171000000    -1.555000000     3.784000000
O    -2.442000000    -2.241000000     3.781000000
H    -1.111000000    -1.056000000     2.806000000
O    -1.237000000    -0.575000000     4.819000000
C    -1.517000000     0.712000000     4.372000000
C    -0.447000000     1.590000000     4.340000000
H     0.530000000     1.240000000     4.665000000
C    -0.594000000     2.827000000     3.763000000
O     0.487000000     3.616000000     3.636000000
C    -1.854000000     3.230000000     3.331000000
C    -2.110000000     4.680000000     2.751000000
H    -3.194000000     4.811000000     2.757000000
C    -1.694000000     4.784000000     1.289000000
C    -2.599000000     4.438000000     0.272000000
H    -3.619000000     4.249000000     0.597000000
H    -1.604000000     5.440000000     3.349000000
C    -2.888000000     2.342000000     3.380000000
H    -3.872000000     2.651000000     3.036000000
C    -2.771000000     1.040000000     3.956000000
C    -4.032000000     0.120000000     4.068000000
H    -4.969000000     0.666000000     4.190000000
H    -3.989000000    -0.471000000     4.985000000
C    -4.098000000    -0.692000000     2.821000000
C    -4.850000000    -0.233000000     1.687000000
H    -5.431000000     0.685000000     1.694000000
C    -3.276000000    -1.863000000     2.745000000
C    -3.423000000    -2.666000000     1.638000000
H    -2.826000000    -3.573000000     1.588000000
C    -4.212000000    -2.239000000     0.492000000
O    -4.324000000    -3.029000000    -0.621000000
C    -3.469000000    -2.591000000    -1.719000000
C    -2.824000000    -3.803000000    -2.424000000
C    -2.345000000    -3.718000000    -3.757000000
H    -2.554000000    -2.844000000    -4.368000000
C    -2.351000000    -4.904000000    -1.686000000
H    -2.614000000    -4.961000000    -0.633000000
O    -4.081000000    -1.764000000    -2.742000000
H    -2.650000000    -2.029000000    -1.246000000
C    -4.838000000    -0.986000000     0.534000000
C    -5.557000000    -0.477000000    -0.723000000
H    -6.379000000     0.151000000    -0.373000000
H    -6.154000000    -1.181000000    -1.308000000
C    -4.565000000     0.295000000    -1.563000000
C    -4.473000000     1.712000000    -1.407000000
H    -5.236000000     2.164000000    -0.779000000
C    -3.868000000    -0.417000000    -2.573000000
C    -2.923000000     0.269000000    -3.286000000
H    -2.311000000    -0.275000000    -4.001000000
C    -2.684000000     1.658000000    -3.058000000
O    -1.625000000     2.274000000    -3.668000000
C    -0.497000000     2.477000000    -2.811000000
C     0.711000000     2.084000000    -3.610000000
C     0.879000000     0.728000000    -4.143000000
H     0.129000000    -0.050000000    -4.027000000
C     1.850000000     2.876000000    -3.678000000
H     1.758000000     3.932000000    -3.437000000
O    -0.492000000     3.887000000    -2.585000000
H    -0.692000000     1.999000000    -1.839000000
C    -3.512000000     2.378000000    -2.215000000
C    -3.319000000     3.881000000    -2.069000000
H    -4.316000000     4.163000000    -1.724000000
H    -3.056000000     4.410000000    -2.987000000
C    -2.251000000     4.324000000    -1.064000000
C    -0.881000000     4.397000000    -1.386000000
C     0.031000000     4.777000000    -0.403000000
H     1.099000000     4.787000000    -0.606000000
C    -0.404000000     5.021000000     0.925000000
O     0.556000000     5.078000000     1.830000000
C     0.992000000     3.785000000     2.308000000
H     0.462000000     3.091000000     1.638000000
C     2.483000000     3.458000000     2.044000000
C     3.039000000     2.299000000     2.629000000
H     2.423000000     1.713000000     3.307000000
C     3.273000000     4.255000000     1.232000000
H     2.922000000     5.232000000     0.909000000
C     4.549000000     3.924000000     0.915000000
O     5.384000000     4.752000000     0.131000000
C     5.095000000     2.788000000     1.446000000
H     6.076000000     2.391000000     1.199000000
C     4.376000000     2.008000000     2.332000000
O     4.989000000     0.885000000     2.843000000
C     4.781000000     0.269000000     4.065000000
C     4.054000000    -0.899000000     4.158000000
H     3.538000000    -1.314000000     3.297000000
C     5.269000000     0.882000000     5.248000000
H     5.944000000     1.733000000     5.199000000
C     5.119000000     0.239000000     6.484000000
H     5.640000000     0.590000000     7.371000000
C     4.478000000    -1.037000000     6.517000000
H     4.390000000    -1.682000000     7.387000000
C     3.959000000    -1.573000000     5.313000000
O     3.336000000    -2.797000000     5.424000000
C     2.212000000    -3.059000000     4.719000000
C     2.406000000    -4.122000000     3.808000000
H     3.356000000    -4.642000000     3.723000000
C     1.327000000    -4.440000000     2.993000000
O     1.497000000    -5.419000000     2.024000000
C     0.508000000    -6.306000000     1.639000000
C     0.216000000    -6.318000000     0.271000000
H     0.802000000    -5.826000000    -0.501000000
C    -0.378000000    -6.832000000     2.581000000
H    -0.191000000    -6.792000000     3.651000000
C    -1.479000000    -7.513000000     2.146000000
H    -2.205000000    -7.848000000     2.883000000
C    -1.827000000    -7.571000000     0.807000000
H    -2.772000000    -7.991000000     0.469000000
C    -0.955000000    -7.039000000    -0.154000000
O    -1.309000000    -7.135000000    -1.481000000
C    -1.536000000    -5.921000000    -2.253000000
C    -1.224000000    -5.898000000    -3.564000000
H    -0.599000000    -6.678000000    -3.991000000
C    -1.524000000    -4.777000000    -4.280000000
O    -1.041000000    -4.675000000    -5.614000000
C    -0.275000000    -3.634000000    -6.020000000
C     0.666000000    -2.935000000    -5.197000000
H     0.944000000    -3.312000000    -4.216000000
C    -0.701000000    -3.134000000    -7.293000000
H    -1.375000000    -3.763000000    -7.868000000
C    -0.186000000    -1.921000000    -7.762000000
H    -0.581000000    -1.468000000    -8.667000000
C     0.781000000    -1.227000000    -6.981000000
H     1.233000000    -0.270000000    -7.229000000
C     1.212000000    -1.751000000    -5.759000000
O     2.250000000    -1.087000000    -5.027000000
C     2.050000000     0.249000000    -4.684000000
C     3.132000000     1.157000000    -4.843000000
H     4.114000000     0.914000000    -5.241000000
C     3.025000000     2.390000000    -4.254000000
O     4.150000000     3.177000000    -4.311000000
C     4.512000000     4.177000000    -3.437000000
C     4.934000000     5.406000000    -3.988000000
H     4.774000000     5.682000000    -5.027000000
C     5.429000000     6.377000000    -3.166000000
H     5.787000000     7.327000000    -3.553000000
C     5.607000000     6.081000000    -1.791000000
H     6.079000000     6.772000000    -1.097000000
C     5.191000000     4.966000000    -1.278000000
C     4.612000000     3.925000000    -2.051000000
H     4.248000000     3.004000000    -1.603000000
C     0.365000000    -2.004000000    -1.038000000
H     0.184000000    -2.620000000    -1.915000000
C    -0.430000000    -0.855000000    -0.825000000
H    -1.275000000    -0.568000000    -1.445000000
C    -0.124000000     0.006000000     0.195000000
H    -0.688000000     0.958000000     0.430000000
C     1.016000000    -0.147000000     0.921000000
H     1.262000000     0.622000000     1.649000000
C     1.908000000    -1.163000000     0.686000000
H     2.843000000    -1.311000000     1.220000000
C     1.615000000    -2.166000000    -0.265000000
C     2.723000000    -3.161000000    -0.630000000
O     3.786000000    -3.069000000    -0.112000000
O     2.483000000    -3.859000000    -1.655000000
O     5.752000000     0.080000000    -1.589000000
H     5.806000000     0.408000000    -2.486000000
H     4.854000000     0.274000000    -1.317000000
O     2.938000000    -4.764000000    -5.533000000
H     2.541000000    -4.350000000    -6.299000000
H     3.150000000    -4.036000000    -4.950000000
O     5.277000000    -8.256000000     1.570000000
H     4.612000000    -8.681000000     1.029000000
H     5.405000000    -7.399000000     1.163000000
O     3.071000000     0.717000000    -1.564000000
H     2.158000000     0.852000000    -1.819000000
H     3.043000000     0.625000000    -0.612000000
O     6.022000000    -1.999000000    -5.485000000
H     5.961000000    -1.083000000    -5.215000000
H     5.383000000    -2.453000000    -4.935000000
O     2.673000000    -8.147000000     3.112000000
H     2.951000000    -7.314000000     2.732000000
H     3.464000000    -8.499000000     3.521000000
O     5.456000000    -6.144000000    -3.829000000
H     5.216000000    -5.916000000    -4.727000000
H     4.711000000    -5.858000000    -3.301000000
O     5.915000000    -2.182000000     1.181000000
H     5.023000000    -2.310000000     0.857000000
H     5.970000000    -2.741000000     1.957000000
O     1.023000000    -8.831000000    -2.869000000
H     1.276000000    -7.948000000    -2.598000000
H     1.145000000    -9.367000000    -2.085000000
O     2.069000000    -7.393000000    -6.019000000
H     2.148000000    -7.895000000    -5.208000000
H     2.265000000    -6.491000000    -5.763000000
O     6.271000000    -2.652000000    -1.673000000
H     6.271000000    -1.695000000    -1.696000000
H     5.773000000    -2.874000000    -0.886000000
O     6.840000000    -6.230000000    -1.262000000
H     6.131000000    -6.139000000    -0.626000000
H     6.400000000    -6.239000000    -2.112000000
O     7.878000000    -3.800000000    -4.672000000
H     7.364000000    -4.442000000    -4.182000000
H     7.225000000    -3.234000000    -5.083000000
O     7.512000000    -0.276000000     0.590000000
H     7.005000000     0.005000000    -0.171000000
H     7.157000000    -1.137000000     0.811000000
O     4.858000000    -5.640000000     0.717000000
H     4.338000000    -4.949000000     0.306000000
H     5.277000000    -5.212000000     1.464000000
O     2.884000000    -6.455000000    -2.053000000
H     2.765000000    -5.572000000    -1.702000000
H     3.255000000    -6.954000000    -1.326000000
O     4.472000000    -3.185000000    -3.533000000
H     3.708000000    -3.317000000    -2.970000000
H     5.188000000    -3.000000000    -2.925000000
O     6.037000000    -4.940000000     3.112000000
H     5.953000000    -4.256000000     3.777000000
H     6.762000000    -5.485000000     3.419000000
O     8.306000000    -4.091000000    -0.268000000
H     8.006000000    -4.952000000    -0.557000000
H     7.864000000    -3.475000000    -0.852000000
