215
-1452.09470
C     0.060000000    -4.081000000     3.114000000
H    -0.906000000    -4.346000000     2.691000000
C     0.250000000    -2.797000000     3.616000000
C     1.432000000    -2.496000000     4.238000000
H     1.496000000    -1.505000000     4.680000000
C    -0.889000000    -1.793000000     3.539000000
O    -2.146000000    -2.371000000     3.730000000
H    -0.874000000    -1.206000000     2.609000000
O    -0.817000000    -0.830000000     4.681000000
C    -1.058000000     0.520000000     4.374000000
C     0.061000000     1.246000000     4.173000000
H     0.989000000     0.742000000     4.427000000
C    -0.053000000     2.515000000     3.540000000
O     1.071000000     3.231000000     3.323000000
C    -1.326000000     3.108000000     3.285000000
C    -1.442000000     4.575000000     2.861000000
H    -2.377000000     5.041000000     3.177000000
C    -1.329000000     4.609000000     1.308000000
C    -2.409000000     4.431000000     0.459000000
H    -3.421000000     4.452000000     0.855000000
H    -0.671000000     5.154000000     3.375000000
C    -2.455000000     2.365000000     3.587000000
H    -3.461000000     2.776000000     3.563000000
C    -2.322000000     1.034000000     3.996000000
C    -3.567000000     0.193000000     4.278000000
H    -4.411000000     0.855000000     4.480000000
H    -3.482000000    -0.480000000     5.134000000
C    -3.762000000    -0.718000000     3.053000000
C    -4.554000000    -0.239000000     2.044000000
H    -4.946000000     0.774000000     2.064000000
C    -3.098000000    -1.943000000     2.892000000
C    -3.322000000    -2.669000000     1.783000000
H    -2.735000000    -3.578000000     1.679000000
C    -4.136000000    -2.165000000     0.740000000
O    -4.219000000    -2.895000000    -0.405000000
C    -3.258000000    -2.425000000    -1.387000000
C    -2.548000000    -3.577000000    -2.071000000
C    -2.065000000    -3.397000000    -3.378000000
H    -2.229000000    -2.474000000    -3.928000000
C    -2.337000000    -4.738000000    -1.396000000
H    -2.788000000    -4.945000000    -0.429000000
O    -4.086000000    -1.653000000    -2.281000000
H    -2.522000000    -1.690000000    -1.029000000
C    -4.718000000    -0.921000000     0.851000000
C    -5.581000000    -0.395000000    -0.233000000
H    -6.394000000     0.171000000     0.227000000
H    -6.053000000    -1.235000000    -0.747000000
C    -4.749000000     0.392000000    -1.257000000
C    -4.581000000     1.769000000    -1.144000000
H    -5.093000000     2.264000000    -0.323000000
C    -4.026000000    -0.313000000    -2.258000000
C    -3.108000000     0.285000000    -3.086000000
H    -2.443000000    -0.270000000    -3.742000000
C    -2.933000000     1.675000000    -2.975000000
O    -1.904000000     2.271000000    -3.746000000
C    -0.636000000     2.598000000    -3.101000000
C     0.616000000     2.299000000    -3.903000000
C     0.687000000     1.091000000    -4.608000000
H    -0.166000000     0.417000000    -4.601000000
C     1.796000000     3.058000000    -3.872000000
H     1.802000000     3.916000000    -3.204000000
O    -0.725000000     4.021000000    -2.763000000
H    -0.581000000     2.094000000    -2.125000000
C    -3.678000000     2.419000000    -1.998000000
C    -3.431000000     3.952000000    -1.823000000
H    -4.302000000     4.390000000    -1.330000000
H    -3.443000000     4.593000000    -2.707000000
C    -2.244000000     4.301000000    -0.923000000
C    -0.957000000     4.340000000    -1.463000000
C     0.129000000     4.569000000    -0.604000000
H     1.160000000     4.557000000    -0.949000000
C    -0.102000000     4.672000000     0.746000000
O     1.095000000     4.680000000     1.486000000
C     1.513000000     3.420000000     1.976000000
H     1.022000000     2.618000000     1.406000000
C     3.051000000     3.117000000     1.708000000
C     3.652000000     2.197000000     2.494000000
H     3.056000000     1.743000000     3.281000000
C     3.824000000     3.840000000     0.760000000
H     3.351000000     4.553000000     0.090000000
C     5.133000000     3.371000000     0.482000000
O     5.986000000     3.977000000    -0.399000000
C     5.745000000     2.596000000     1.444000000
H     6.810000000     2.386000000     1.384000000
C     5.023000000     2.036000000     2.487000000
O     5.719000000     1.252000000     3.411000000
C     5.098000000     0.446000000     4.298000000
C     4.690000000    -0.825000000     3.943000000
H     4.824000000    -1.288000000     2.969000000
C     4.826000000     0.961000000     5.570000000
H     5.142000000     1.936000000     5.932000000
C     4.193000000     0.088000000     6.493000000
H     3.867000000     0.466000000     7.458000000
C     3.901000000    -1.215000000     6.171000000
H     3.448000000    -1.939000000     6.843000000
C     4.151000000    -1.683000000     4.928000000
O     3.825000000    -3.033000000     4.561000000
C     2.528000000    -3.404000000     4.228000000
C     2.387000000    -4.621000000     3.579000000
H     3.167000000    -5.377000000     3.635000000
C     1.113000000    -4.964000000     3.055000000
O     0.971000000    -6.276000000     2.699000000
C    -0.153000000    -6.730000000     2.042000000
C    -0.204000000    -6.692000000     0.661000000
H     0.632000000    -6.321000000     0.073000000
C    -1.261000000    -7.236000000     2.804000000
H    -1.263000000    -7.172000000     3.889000000
C    -2.377000000    -7.698000000     2.100000000
H    -3.250000000    -8.041000000     2.649000000
C    -2.451000000    -7.740000000     0.690000000
H    -3.318000000    -7.893000000     0.053000000
C    -1.386000000    -7.123000000    -0.022000000
O    -1.485000000    -6.984000000    -1.462000000
C    -1.685000000    -5.782000000    -2.083000000
C    -1.271000000    -5.681000000    -3.398000000
H    -0.803000000    -6.529000000    -3.891000000
C    -1.479000000    -4.440000000    -4.049000000
O    -0.807000000    -4.299000000    -5.258000000
C    -0.692000000    -3.174000000    -6.078000000
C     0.465000000    -2.374000000    -5.854000000
H     1.275000000    -2.744000000    -5.232000000
C    -1.725000000    -2.584000000    -6.854000000
H    -2.756000000    -2.927000000    -6.874000000
C    -1.565000000    -1.267000000    -7.400000000
H    -2.353000000    -0.755000000    -7.946000000
C    -0.414000000    -0.533000000    -7.144000000
H    -0.265000000     0.460000000    -7.561000000
C     0.649000000    -1.133000000    -6.398000000
O     1.790000000    -0.441000000    -6.111000000
C     1.763000000     0.745000000    -5.333000000
C     2.878000000     1.562000000    -5.326000000
H     3.752000000     1.179000000    -5.847000000
C     2.955000000     2.695000000    -4.558000000
O     3.980000000     3.623000000    -4.699000000
C     4.538000000     4.317000000    -3.678000000
C     4.856000000     5.676000000    -3.965000000
H     4.572000000     6.207000000    -4.869000000
C     5.467000000     6.440000000    -2.921000000
H     5.526000000     7.508000000    -3.115000000
C     5.798000000     5.854000000    -1.732000000
H     6.209000000     6.471000000    -0.937000000
C     5.593000000     4.525000000    -1.563000000
C     4.891000000     3.735000000    -2.434000000
H     4.625000000     2.712000000    -2.183000000
C     0.946000000    -1.810000000    -1.722000000
H     0.777000000    -2.330000000    -2.661000000
C     0.027000000    -0.831000000    -1.245000000
H    -0.734000000    -0.372000000    -1.871000000
C     0.204000000    -0.290000000     0.021000000
H    -0.355000000     0.535000000     0.476000000
C     1.276000000    -0.659000000     0.838000000
H     1.360000000    -0.123000000     1.780000000
C     2.141000000    -1.623000000     0.360000000
H     2.984000000    -1.882000000     0.996000000
C     1.984000000    -2.248000000    -0.875000000
C     3.035000000    -3.243000000    -1.428000000
O     4.007000000    -3.512000000    -0.720000000
O     2.912000000    -3.698000000    -2.587000000
O     1.900000000    -9.151000000     0.040000000
H     1.242000000    -9.846000000     0.046000000
H     1.579000000    -8.523000000    -0.608000000
O     3.434000000    -4.060000000    -7.888000000
H     4.266000000    -3.652000000    -8.126000000
H     3.554000000    -4.337000000    -6.980000000
O     5.472000000     0.229000000    -1.011000000
H     5.477000000     0.284000000    -0.056000000
H     4.648000000     0.640000000    -1.271000000
O     4.108000000    -5.100000000    -5.443000000
H     3.427000000    -5.538000000    -4.932000000
H     4.371000000    -4.355000000    -4.903000000
O     4.988000000    -7.754000000     2.182000000
H     5.663000000    -7.079000000     2.114000000
H     5.398000000    -8.540000000     1.821000000
O     2.784000000     0.919000000    -1.710000000
H     2.230000000     1.141000000    -2.458000000
H     2.176000000     0.568000000    -1.058000000
O     5.642000000    -1.451000000    -6.460000000
H     6.271000000    -0.865000000    -6.038000000
H     5.446000000    -2.110000000    -5.794000000
O     5.506000000    -5.954000000    -2.965000000
H     4.837000000    -6.626000000    -3.098000000
H     5.256000000    -5.525000000    -2.146000000
O     6.351000000    -3.306000000     1.327000000
H     5.515000000    -3.388000000     0.867000000
H     6.378000000    -4.065000000     1.910000000
O     1.962000000    -8.055000000    -4.132000000
H     1.765000000    -7.490000000    -3.385000000
H     2.879000000    -8.301000000    -4.012000000
O     6.270000000    -2.290000000    -1.834000000
H     6.142000000    -1.467000000    -1.361000000
H     5.571000000    -2.861000000    -1.515000000
O     6.859000000    -6.695000000     0.137000000
H     5.996000000    -7.084000000    -0.009000000
H     7.466000000    -7.288000000    -0.305000000
O     7.604000000    -4.743000000    -4.271000000
H     6.863000000    -5.238000000    -3.920000000
H     8.005000000    -4.336000000    -3.502000000
O     8.713000000    -1.859000000     1.486000000
H     7.913000000    -2.306000000     1.209000000
H     9.366000000    -2.555000000     1.551000000
O     8.522000000    -1.855000000    -3.117000000
H     7.648000000    -2.003000000    -2.758000000
H     9.075000000    -1.708000000    -2.349000000
O     3.875000000    -6.274000000     0.048000000
H     3.937000000    -5.319000000     0.056000000
H     4.083000000    -6.534000000     0.946000000
O     2.239000000    -6.195000000    -2.192000000
H     2.352000000    -5.249000000    -2.289000000
H     2.732000000    -6.415000000    -1.402000000
O     4.844000000    -2.841000000    -4.165000000
H     3.990000000    -2.937000000    -3.744000000
H     5.449000000    -2.672000000    -3.443000000
O     8.640000000    -4.271000000    -1.357000000
H     9.133000000    -4.269000000    -0.537000000
H     7.725000000    -4.195000000    -1.088000000
