215
-1458.97891
C    -0.918000000    -3.212000000     4.256000000
H    -1.571000000    -3.758000000     3.581000000
C    -1.103000000    -1.864000000     4.475000000
C    -0.213000000    -1.262000000     5.334000000
H    -0.219000000    -0.201000000     5.572000000
C    -2.085000000    -1.011000000     3.687000000
O    -3.357000000    -1.757000000     3.347000000
H    -1.533000000    -0.762000000     2.769000000
O    -2.430000000     0.220000000     4.469000000
C    -2.467000000     1.409000000     3.784000000
C    -1.338000000     2.186000000     3.758000000
H    -0.433000000     1.797000000     4.218000000
C    -1.303000000     3.349000000     2.995000000
O    -0.090000000     4.068000000     2.854000000
C    -2.435000000     3.762000000     2.219000000
C    -2.286000000     4.938000000     1.275000000
H    -3.215000000     5.498000000     1.152000000
C    -1.580000000     4.565000000    -0.046000000
C    -2.442000000     4.278000000    -1.100000000
H    -3.524000000     4.349000000    -1.020000000
H    -1.667000000     5.680000000     1.782000000
C    -3.491000000     2.870000000     2.178000000
H    -4.335000000     3.087000000     1.529000000
C    -3.534000000     1.715000000     2.924000000
C    -4.810000000     0.813000000     2.857000000
H    -5.717000000     1.394000000     2.676000000
H    -4.921000000     0.295000000     3.813000000
C    -4.621000000    -0.321000000     1.794000000
C    -5.135000000    -0.092000000     0.521000000
H    -5.654000000     0.839000000     0.308000000
C    -3.937000000    -1.503000000     2.078000000
C    -3.904000000    -2.461000000     1.097000000
H    -3.245000000    -3.311000000     1.254000000
C    -4.277000000    -2.152000000    -0.207000000
O    -3.856000000    -3.012000000    -1.184000000
C    -2.788000000    -2.542000000    -2.009000000
C    -1.554000000    -3.488000000    -2.113000000
C    -1.059000000    -3.774000000    -3.415000000
H    -1.509000000    -3.511000000    -4.369000000
C    -0.829000000    -3.990000000    -1.063000000
H    -1.135000000    -3.613000000    -0.090000000
O    -3.232000000    -2.116000000    -3.299000000
H    -2.379000000    -1.661000000    -1.492000000
C    -4.895000000    -0.943000000    -0.503000000
C    -5.255000000    -0.660000000    -1.909000000
H    -6.070000000     0.066000000    -1.946000000
H    -5.642000000    -1.565000000    -2.381000000
C    -4.130000000     0.018000000    -2.665000000
C    -4.001000000     1.416000000    -2.701000000
H    -4.664000000     2.072000000    -2.143000000
C    -3.261000000    -0.781000000    -3.440000000
C    -2.277000000    -0.186000000    -4.227000000
H    -1.607000000    -0.776000000    -4.848000000
C    -2.046000000     1.168000000    -4.157000000
O    -1.011000000     1.699000000    -4.842000000
C     0.078000000     2.023000000    -3.975000000
C     1.427000000     1.430000000    -4.336000000
C     1.473000000     0.338000000    -5.265000000
H     0.629000000     0.141000000    -5.920000000
C     2.558000000     1.706000000    -3.548000000
H     2.408000000     2.436000000    -2.756000000
O     0.156000000     3.439000000    -3.692000000
H    -0.014000000     1.543000000    -2.990000000
C    -2.963000000     1.951000000    -3.463000000
C    -2.821000000     3.437000000    -3.462000000
H    -3.774000000     3.968000000    -3.423000000
H    -2.486000000     3.788000000    -4.441000000
C    -1.891000000     3.880000000    -2.330000000
C    -0.516000000     3.934000000    -2.569000000
C     0.328000000     4.323000000    -1.548000000
H     1.403000000     4.398000000    -1.686000000
C    -0.183000000     4.449000000    -0.287000000
O     0.754000000     4.617000000     0.708000000
C     0.740000000     3.606000000     1.776000000
H     0.366000000     2.644000000     1.398000000
C     2.169000000     3.310000000     2.387000000
C     2.408000000     2.991000000     3.703000000
H     1.588000000     2.876000000     4.408000000
C     3.227000000     3.502000000     1.462000000
H     2.988000000     3.782000000     0.439000000
C     4.538000000     3.409000000     1.900000000
O     5.608000000     3.714000000     1.045000000
C     4.761000000     3.143000000     3.265000000
H     5.785000000     3.082000000     3.622000000
C     3.771000000     2.845000000     4.140000000
O     4.091000000     2.611000000     5.489000000
C     3.223000000     1.919000000     6.274000000
C     3.152000000     0.513000000     6.115000000
H     3.925000000    -0.028000000     5.575000000
C     2.326000000     2.687000000     7.016000000
H     2.411000000     3.770000000     6.981000000
C     1.339000000     1.991000000     7.744000000
H     0.706000000     2.544000000     8.434000000
C     1.175000000     0.599000000     7.596000000
H     0.346000000     0.143000000     8.130000000
C     2.069000000    -0.123000000     6.786000000
O     1.867000000    -1.535000000     6.762000000
C     0.783000000    -1.980000000     6.007000000
C     0.879000000    -3.315000000     5.818000000
H     1.762000000    -3.838000000     6.176000000
C     0.009000000    -3.955000000     4.943000000
O     0.242000000    -5.233000000     4.547000000
C     0.041000000    -5.812000000     3.296000000
C     0.585000000    -5.157000000     2.175000000
H     1.193000000    -4.256000000     2.172000000
C    -0.756000000    -6.912000000     3.145000000
H    -1.099000000    -7.373000000     4.067000000
C    -0.936000000    -7.423000000     1.868000000
H    -1.510000000    -8.342000000     1.784000000
C    -0.314000000    -6.882000000     0.722000000
H    -0.513000000    -7.232000000    -0.288000000
C     0.490000000    -5.767000000     0.898000000
O     1.100000000    -5.126000000    -0.114000000
C     0.340000000    -4.731000000    -1.195000000
C     0.828000000    -4.985000000    -2.426000000
H     1.693000000    -5.637000000    -2.516000000
C     0.105000000    -4.543000000    -3.493000000
O     0.421000000    -5.108000000    -4.742000000
C     0.709000000    -4.248000000    -5.807000000
C     1.454000000    -3.070000000    -5.540000000
H     1.623000000    -2.822000000    -4.495000000
C     0.419000000    -4.724000000    -7.080000000
H    -0.027000000    -5.707000000    -7.213000000
C     1.070000000    -4.036000000    -8.104000000
H     1.094000000    -4.466000000    -9.102000000
C     1.688000000    -2.826000000    -7.916000000
H     2.222000000    -2.248000000    -8.666000000
C     1.895000000    -2.350000000    -6.620000000
O     2.767000000    -1.307000000    -6.484000000
C     2.677000000    -0.330000000    -5.526000000
C     3.800000000     0.063000000    -4.761000000
H     4.697000000    -0.500000000    -5.005000000
C     3.705000000     0.966000000    -3.719000000
O     4.750000000     1.213000000    -2.884000000
C     5.108000000     2.388000000    -2.258000000
C     5.370000000     3.446000000    -3.070000000
H     5.389000000     3.286000000    -4.145000000
C     5.935000000     4.588000000    -2.520000000
H     6.208000000     5.342000000    -3.255000000
C     5.978000000     4.666000000    -1.143000000
H     6.366000000     5.596000000    -0.735000000
C     5.617000000     3.607000000    -0.361000000
C     5.109000000     2.459000000    -0.906000000
H     4.814000000     1.585000000    -0.332000000
C     0.857000000    -1.309000000    -1.224000000
H     0.792000000    -1.594000000    -2.271000000
C    -0.120000000    -0.481000000    -0.717000000
H    -0.995000000    -0.185000000    -1.290000000
C    -0.105000000    -0.046000000     0.606000000
H    -0.858000000     0.632000000     0.950000000
C     0.975000000    -0.301000000     1.393000000
H     0.954000000     0.118000000     2.396000000
C     1.974000000    -1.093000000     0.911000000
H     2.896000000    -1.212000000     1.474000000
C     1.978000000    -1.494000000    -0.442000000
C     3.215000000    -2.162000000    -1.077000000
O     4.111000000    -2.555000000    -0.329000000
O     3.275000000    -2.370000000    -2.269000000
O     7.760000000    -4.631000000     1.108000000
H     7.050000000    -5.273000000     1.135000000
H     7.374000000    -3.864000000     0.686000000
O     6.764000000    -5.115000000    -2.882000000
H     6.000000000    -4.620000000    -3.176000000
H     7.475000000    -4.821000000    -3.452000000
O     4.243000000    -5.111000000     4.036000000
H     4.427000000    -5.999000000     3.729000000
H     4.397000000    -4.556000000     3.271000000
O     6.698000000    -2.510000000     0.076000000
H     5.820000000    -2.671000000     0.421000000
H     6.550000000    -2.087000000    -0.769000000
O     3.487000000    -5.562000000    -5.837000000
H     3.991000000    -5.051000000    -6.471000000
H     2.583000000    -5.500000000    -6.144000000
O     9.183000000    -1.316000000     0.477000000
H     9.061000000    -0.489000000     0.010000000
H     8.332000000    -1.750000000     0.423000000
O     5.886000000    -2.466000000    -6.433000000
H     6.684000000    -1.986000000    -6.655000000
H     6.015000000    -2.736000000    -5.524000000
O     8.693000000    -1.622000000    -3.841000000
H     9.029000000    -2.518000000    -3.838000000
H     8.087000000    -1.592000000    -3.100000000
O     4.634000000    -3.558000000     2.055000000
H     4.777000000    -2.683000000     2.414000000
H     4.112000000    -3.411000000     1.267000000
O     5.590000000    -6.395000000     1.294000000
H     5.102000000    -5.897000000     0.638000000
H     4.945000000    -6.996000000     1.667000000
O     8.335000000     1.349000000    -2.986000000
H     7.645000000     0.954000000    -3.519000000
H     7.971000000     2.188000000    -2.706000000
O     8.016000000     1.340000000     0.070000000
H     8.214000000     1.798000000     0.888000000
H     8.681000000     1.650000000    -0.545000000
O     6.744000000    -7.832000000    -2.080000000
H     7.567000000    -8.255000000    -1.835000000
H     7.012000000    -7.011000000    -2.493000000
O     3.438000000    -7.584000000    -0.885000000
H     3.467000000    -6.635000000    -0.760000000
H     4.336000000    -7.823000000    -1.114000000
O     3.382000000    -8.049000000     2.124000000
H     3.037000000    -8.899000000     2.398000000
H     3.137000000    -7.976000000     1.202000000
O     6.413000000    -1.197000000    -2.249000000
H     5.591000000    -1.620000000    -2.498000000
H     6.156000000    -0.316000000    -1.976000000
O     5.203000000    -0.964000000     3.323000000
H     5.719000000    -1.576000000     3.847000000
H     5.808000000    -0.249000000     3.125000000
O     4.570000000    -5.068000000    -0.866000000
H     4.136000000    -4.227000000    -1.013000000
H     5.404000000    -4.991000000    -1.329000000
O     4.851000000    -3.639000000    -4.044000000
H     4.428000000    -4.302000000    -4.589000000
H     4.135000000    -3.246000000    -3.545000000
