215
-1448.03657
C     0.173000000    -2.933000000     3.649000000
H    -0.478000000    -3.321000000     2.870000000
C    -0.177000000    -1.673000000     4.156000000
C     0.771000000    -0.903000000     4.819000000
H     0.580000000     0.136000000     5.075000000
C    -1.509000000    -1.012000000     3.643000000
O    -2.587000000    -1.964000000     3.447000000
H    -1.199000000    -0.484000000     2.729000000
O    -1.906000000     0.031000000     4.520000000
C    -2.238000000     1.256000000     3.917000000
C    -1.279000000     2.311000000     3.882000000
H    -0.359000000     2.274000000     4.459000000
C    -1.478000000     3.418000000     3.090000000
O    -0.426000000     4.253000000     3.018000000
C    -2.655000000     3.507000000     2.331000000
C    -2.878000000     4.564000000     1.336000000
H    -3.920000000     4.855000000     1.185000000
C    -2.200000000     4.324000000    -0.029000000
C    -2.952000000     3.817000000    -1.053000000
H    -4.020000000     3.689000000    -0.902000000
H    -2.495000000     5.484000000     1.783000000
C    -3.598000000     2.486000000     2.373000000
H    -4.451000000     2.445000000     1.701000000
C    -3.417000000     1.339000000     3.117000000
C    -4.435000000     0.191000000     3.099000000
H    -5.418000000     0.616000000     2.885000000
H    -4.444000000    -0.338000000     4.055000000
C    -4.110000000    -0.788000000     2.068000000
C    -4.682000000    -0.645000000     0.766000000
H    -5.279000000     0.222000000     0.496000000
C    -3.287000000    -1.845000000     2.258000000
C    -3.195000000    -2.910000000     1.380000000
H    -2.524000000    -3.749000000     1.548000000
C    -3.773000000    -2.723000000     0.177000000
O    -3.490000000    -3.669000000    -0.779000000
C    -2.543000000    -3.286000000    -1.773000000
C    -1.601000000    -4.454000000    -2.051000000
C    -0.740000000    -4.395000000    -3.163000000
H    -0.865000000    -3.560000000    -3.847000000
C    -1.526000000    -5.463000000    -1.122000000
H    -2.196000000    -5.572000000    -0.273000000
O    -3.183000000    -2.806000000    -2.930000000
H    -1.814000000    -2.626000000    -1.281000000
C    -4.569000000    -1.621000000    -0.128000000
C    -5.249000000    -1.395000000    -1.443000000
H    -6.147000000    -0.781000000    -1.355000000
H    -5.637000000    -2.352000000    -1.797000000
C    -4.324000000    -0.706000000    -2.449000000
C    -4.290000000     0.694000000    -2.564000000
H    -4.981000000     1.339000000    -2.028000000
C    -3.312000000    -1.425000000    -3.126000000
C    -2.259000000    -0.748000000    -3.803000000
H    -1.479000000    -1.322000000    -4.297000000
C    -2.302000000     0.629000000    -3.934000000
O    -1.179000000     1.199000000    -4.480000000
C    -0.123000000     1.763000000    -3.636000000
C     1.242000000     1.422000000    -4.260000000
C     1.458000000     0.179000000    -4.848000000
H     0.618000000    -0.480000000    -5.051000000
C     2.362000000     2.246000000    -4.033000000
H     2.199000000     3.236000000    -3.616000000
O    -0.341000000     3.172000000    -3.501000000
H    -0.316000000     1.237000000    -2.689000000
C    -3.312000000     1.341000000    -3.293000000
C    -3.209000000     2.864000000    -3.312000000
H    -4.205000000     3.311000000    -3.347000000
H    -2.715000000     3.060000000    -4.266000000
C    -2.356000000     3.540000000    -2.233000000
C    -1.005000000     3.700000000    -2.451000000
C    -0.226000000     4.156000000    -1.383000000
H     0.840000000     4.318000000    -1.519000000
C    -0.854000000     4.539000000    -0.174000000
O    -0.131000000     5.082000000     0.859000000
C     0.378000000     4.195000000     1.834000000
H     0.234000000     3.160000000     1.491000000
C     1.877000000     4.264000000     2.039000000
C     2.274000000     4.264000000     3.357000000
H     1.612000000     4.522000000     4.180000000
C     2.802000000     4.138000000     0.984000000
H     2.403000000     4.191000000    -0.026000000
C     4.116000000     3.760000000     1.325000000
O     5.106000000     3.531000000     0.348000000
C     4.503000000     3.544000000     2.641000000
H     5.495000000     3.179000000     2.896000000
C     3.624000000     3.976000000     3.642000000
O     4.050000000     3.889000000     4.914000000
C     3.494000000     2.948000000     5.764000000
C     3.584000000     1.605000000     5.467000000
H     4.137000000     1.366000000     4.562000000
C     2.611000000     3.270000000     6.809000000
H     2.424000000     4.332000000     6.940000000
C     1.952000000     2.337000000     7.512000000
H     1.138000000     2.649000000     8.162000000
C     2.131000000     0.990000000     7.259000000
H     1.562000000     0.344000000     7.923000000
C     2.907000000     0.604000000     6.135000000
O     2.961000000    -0.683000000     5.736000000
C     2.009000000    -1.409000000     5.052000000
C     2.379000000    -2.692000000     4.571000000
H     3.397000000    -3.072000000     4.602000000
C     1.445000000    -3.453000000     3.856000000
O     1.867000000    -4.673000000     3.283000000
C     0.911000000    -5.549000000     2.825000000
C     0.760000000    -5.925000000     1.455000000
H     1.291000000    -5.377000000     0.680000000
C     0.332000000    -6.339000000     3.830000000
H     0.646000000    -6.244000000     4.867000000
C    -0.514000000    -7.344000000     3.471000000
H    -0.803000000    -7.962000000     4.318000000
C    -0.747000000    -7.657000000     2.122000000
H    -1.341000000    -8.499000000     1.776000000
C    -0.100000000    -6.924000000     1.122000000
O    -0.269000000    -7.293000000    -0.230000000
C    -0.454000000    -6.368000000    -1.269000000
C     0.334000000    -6.348000000    -2.414000000
H     1.058000000    -7.146000000    -2.558000000
C     0.181000000    -5.417000000    -3.445000000
O     1.097000000    -5.494000000    -4.497000000
C     1.115000000    -4.368000000    -5.323000000
C     2.005000000    -3.264000000    -5.274000000
H     2.687000000    -3.253000000    -4.428000000
C     0.180000000    -4.385000000    -6.344000000
H    -0.528000000    -5.196000000    -6.494000000
C     0.038000000    -3.407000000    -7.268000000
H    -0.760000000    -3.464000000    -8.003000000
C     1.002000000    -2.373000000    -7.251000000
H     1.022000000    -1.575000000    -7.989000000
C     1.926000000    -2.291000000    -6.257000000
O     2.892000000    -1.257000000    -6.213000000
C     2.647000000    -0.180000000    -5.424000000
C     3.708000000     0.715000000    -5.242000000
H     4.708000000     0.427000000    -5.556000000
C     3.601000000     1.867000000    -4.432000000
O     4.618000000     2.801000000    -4.348000000
C     4.784000000     3.662000000    -3.280000000
C     4.734000000     5.055000000    -3.466000000
H     4.516000000     5.474000000    -4.445000000
C     4.775000000     5.937000000    -2.351000000
H     4.631000000     7.004000000    -2.501000000
C     4.895000000     5.401000000    -1.065000000
H     4.690000000     6.017000000    -0.193000000
C     4.996000000     4.007000000    -0.896000000
C     4.943000000     3.138000000    -1.972000000
H     4.933000000     2.060000000    -1.834000000
C     1.931000000    -2.125000000    -0.170000000
H     2.157000000    -2.952000000    -0.838000000
C     1.015000000    -1.122000000    -0.528000000
H     0.308000000    -1.260000000    -1.341000000
C     0.838000000     0.000000000     0.259000000
H    -0.211000000     0.514000000     0.235000000
C     1.661000000     0.167000000     1.375000000
H     1.439000000     0.942000000     2.105000000
C     2.713000000    -0.758000000     1.675000000
H     3.377000000    -0.679000000     2.532000000
C     2.860000000    -1.878000000     0.845000000
C     3.956000000    -2.889000000     1.137000000
O     4.788000000    -2.515000000     1.952000000
O     4.224000000    -3.921000000     0.443000000
O     3.019000000    -8.815000000    -1.025000000
H     3.658000000    -8.554000000    -1.688000000
H     3.047000000    -8.112000000    -0.376000000
O     6.570000000    -0.283000000     1.579000000
H     7.138000000    -0.697000000     0.929000000
H     5.910000000    -0.947000000     1.778000000
O     5.517000000    -1.454000000     4.353000000
H     6.159000000    -1.892000000     4.911000000
H     5.571000000    -1.916000000     3.517000000
O     5.452000000    -1.005000000    -1.926000000
H     5.926000000    -0.244000000    -2.260000000
H     4.681000000    -0.636000000    -1.494000000
O     4.491000000    -7.138000000     4.585000000
H     4.068000000    -7.778000000     4.013000000
H     4.685000000    -6.396000000     4.012000000
O     6.607000000    -4.985000000     0.369000000
H     5.794000000    -4.565000000     0.089000000
H     6.324000000    -5.789000000     0.804000000
O     6.982000000     1.053000000     3.904000000
H     6.200000000     0.588000000     4.201000000
H     7.183000000     0.666000000     3.052000000
O     9.329000000    -5.023000000    -0.582000000
H    10.081000000    -5.485000000    -0.212000000
H     8.587000000    -5.305000000    -0.047000000
O     7.282000000    -3.119000000     2.725000000
H     7.495000000    -2.266000000     2.348000000
H     6.366000000    -3.264000000     2.487000000
O    10.268000000    -3.703000000     1.936000000
H     9.623000000    -3.693000000     1.230000000
H    10.048000000    -2.941000000     2.472000000
O     8.033000000     2.076000000     0.406000000
H     8.152000000     2.124000000    -0.543000000
H     7.357000000     1.410000000     0.530000000
O     7.242000000    -6.184000000    -2.271000000
H     6.544000000    -5.565000000    -2.056000000
H     7.984000000    -5.902000000    -1.737000000
O     7.879000000    -2.127000000    -0.124000000
H     7.613000000    -3.042000000    -0.035000000
H     8.325000000    -2.089000000    -0.971000000
O     4.737000000    -5.235000000     2.911000000
H     4.940000000    -4.604000000     2.220000000
H     3.785000000    -5.190000000     3.003000000
O     3.669000000    -6.422000000     0.117000000
H     4.555000000    -6.737000000    -0.063000000
H     3.797000000    -5.576000000     0.544000000
O     6.114000000    -7.816000000     1.045000000
H     6.828000000    -7.952000000     1.668000000
H     5.393000000    -8.345000000     1.388000000
O     4.356000000    -3.437000000    -2.324000000
H     4.378000000    -3.696000000    -1.403000000
H     4.795000000    -2.587000000    -2.345000000
O     4.170000000    -5.443000000    -4.501000000
H     3.397000000    -6.006000000    -4.467000000
H     4.175000000    -4.991000000    -3.657000000
O     8.098000000    -3.377000000     5.417000000
H     7.318000000    -3.889000000     5.629000000
H     8.111000000    -3.345000000     4.461000000
