215
-1436.79123
C    -0.047000000    -2.263000000     4.119000000
H    -0.551000000    -2.887000000     3.385000000
C    -0.476000000    -0.910000000     4.339000000
C     0.300000000    -0.114000000     5.269000000
H     0.041000000     0.906000000     5.540000000
C    -1.727000000    -0.437000000     3.639000000
O    -2.791000000    -1.465000000     3.681000000
H    -1.551000000    -0.178000000     2.585000000
O    -2.394000000     0.706000000     4.259000000
C    -2.768000000     1.714000000     3.479000000
C    -1.773000000     2.723000000     3.265000000
H    -0.899000000     2.818000000     3.904000000
C    -1.957000000     3.737000000     2.327000000
O    -0.895000000     4.538000000     2.098000000
C    -3.012000000     3.655000000     1.421000000
C    -3.175000000     4.669000000     0.285000000
H    -4.215000000     4.792000000    -0.022000000
C    -2.438000000     4.310000000    -0.992000000
C    -3.137000000     3.558000000    -1.991000000
H    -4.184000000     3.314000000    -1.831000000
H    -2.809000000     5.660000000     0.560000000
C    -4.074000000     2.726000000     1.630000000
H    -4.978000000     2.749000000     1.027000000
C    -3.898000000     1.692000000     2.669000000
C    -4.839000000     0.534000000     2.877000000
H    -5.861000000     0.801000000     2.599000000
H    -5.055000000     0.193000000     3.891000000
C    -4.507000000    -0.682000000     2.047000000
C    -4.863000000    -0.684000000     0.608000000
H    -5.327000000     0.178000000     0.136000000
C    -3.486000000    -1.566000000     2.509000000
C    -3.065000000    -2.606000000     1.714000000
H    -2.332000000    -3.280000000     2.151000000
C    -3.570000000    -2.741000000     0.420000000
O    -3.076000000    -3.815000000    -0.321000000
C    -2.085000000    -3.463000000    -1.353000000
C    -1.003000000    -4.503000000    -1.400000000
C    -0.350000000    -4.907000000    -2.545000000
H    -0.633000000    -4.588000000    -3.545000000
C    -0.651000000    -5.188000000    -0.165000000
H    -1.066000000    -4.859000000     0.784000000
O    -2.569000000    -3.214000000    -2.721000000
H    -1.615000000    -2.536000000    -0.993000000
C    -4.417000000    -1.774000000    -0.146000000
C    -4.841000000    -1.839000000    -1.608000000
H    -5.875000000    -1.516000000    -1.752000000
H    -4.914000000    -2.884000000    -1.914000000
C    -3.872000000    -1.204000000    -2.584000000
C    -3.972000000     0.167000000    -2.913000000
H    -4.828000000     0.664000000    -2.464000000
C    -2.853000000    -1.933000000    -3.127000000
C    -1.981000000    -1.441000000    -4.104000000
H    -1.204000000    -2.092000000    -4.497000000
C    -2.060000000    -0.088000000    -4.403000000
O    -0.982000000     0.555000000    -4.984000000
C    -0.044000000     1.278000000    -4.130000000
C     1.493000000     0.791000000    -4.320000000
C     1.716000000    -0.397000000    -5.023000000
H     0.941000000    -0.964000000    -5.532000000
C     2.576000000     1.484000000    -3.722000000
H     2.385000000     2.380000000    -3.137000000
O    -0.273000000     2.714000000    -4.209000000
H    -0.289000000     1.039000000    -3.085000000
C    -3.063000000     0.694000000    -3.816000000
C    -3.142000000     2.173000000    -4.124000000
H    -4.159000000     2.444000000    -4.416000000
H    -2.681000000     2.368000000    -5.095000000
C    -2.448000000     3.084000000    -3.112000000
C    -1.029000000     3.199000000    -3.155000000
C    -0.341000000     3.904000000    -2.147000000
H     0.741000000     3.853000000    -2.244000000
C    -1.069000000     4.507000000    -1.092000000
O    -0.347000000     5.126000000    -0.094000000
C     0.029000000     4.286000000     1.024000000
H    -0.193000000     3.257000000     0.705000000
C     1.512000000     4.442000000     1.416000000
C     1.965000000     3.982000000     2.643000000
H     1.211000000     3.634000000     3.344000000
C     2.465000000     4.882000000     0.494000000
H     2.155000000     5.301000000    -0.460000000
C     3.807000000     4.881000000     0.781000000
O     4.749000000     5.371000000    -0.156000000
C     4.247000000     4.554000000     2.092000000
H     5.292000000     4.511000000     2.387000000
C     3.352000000     4.119000000     3.044000000
O     3.883000000     3.537000000     4.232000000
C     3.025000000     3.153000000     5.254000000
C     2.868000000     1.800000000     5.417000000
H     3.303000000     1.118000000     4.691000000
C     2.548000000     4.130000000     6.140000000
H     2.763000000     5.187000000     6.005000000
C     1.813000000     3.624000000     7.237000000
H     1.424000000     4.319000000     7.976000000
C     1.700000000     2.274000000     7.503000000
H     1.152000000     1.875000000     8.353000000
C     2.195000000     1.359000000     6.551000000
O     2.105000000     0.089000000     6.812000000
C     1.333000000    -0.693000000     5.938000000
C     1.680000000    -2.039000000     5.787000000
H     2.491000000    -2.398000000     6.416000000
C     1.000000000    -2.832000000     4.865000000
O     1.274000000    -4.214000000     4.907000000
C     0.571000000    -5.225000000     4.262000000
C     0.907000000    -5.614000000     2.939000000
H     1.619000000    -5.080000000     2.313000000
C    -0.488000000    -5.768000000     4.911000000
H    -0.831000000    -5.360000000     5.858000000
C    -1.268000000    -6.727000000     4.231000000
H    -2.213000000    -7.123000000     4.593000000
C    -0.959000000    -7.136000000     2.920000000
H    -1.549000000    -7.884000000     2.398000000
C     0.053000000    -6.561000000     2.246000000
O     0.358000000    -6.952000000     0.981000000
C     0.233000000    -6.208000000    -0.152000000
C     0.972000000    -6.468000000    -1.254000000
H     1.771000000    -7.197000000    -1.153000000
C     0.743000000    -5.779000000    -2.397000000
O     1.646000000    -5.964000000    -3.428000000
C     1.777000000    -5.185000000    -4.601000000
C     2.638000000    -4.075000000    -4.685000000
H     3.453000000    -4.019000000    -3.968000000
C     0.877000000    -5.378000000    -5.620000000
H     0.205000000    -6.218000000    -5.460000000
C     0.815000000    -4.552000000    -6.791000000
H     0.111000000    -4.744000000    -7.597000000
C     1.609000000    -3.420000000    -6.775000000
H     1.667000000    -2.799000000    -7.665000000
C     2.452000000    -3.112000000    -5.732000000
O     3.326000000    -2.054000000    -5.821000000
C     3.044000000    -0.843000000    -5.154000000
C     4.108000000    -0.090000000    -4.579000000
H     5.128000000    -0.428000000    -4.742000000
C     3.862000000     1.017000000    -3.742000000
O     4.925000000     1.719000000    -3.210000000
C     5.031000000     3.076000000    -2.955000000
C     5.315000000     3.956000000    -3.984000000
H     5.330000000     3.751000000    -5.051000000
C     5.386000000     5.368000000    -3.759000000
H     5.776000000     6.003000000    -4.550000000
C     5.023000000     5.841000000    -2.432000000
H     5.118000000     6.916000000    -2.300000000
C     4.892000000     4.920000000    -1.416000000
C     4.962000000     3.563000000    -1.616000000
H     4.617000000     2.886000000    -0.839000000
C     1.422000000    -1.885000000    -1.089000000
H     1.605000000    -2.661000000    -1.828000000
C     0.403000000    -0.970000000    -1.382000000
H    -0.011000000    -1.059000000    -2.383000000
C    -0.029000000    -0.004000000    -0.469000000
H    -0.856000000     0.631000000    -0.677000000
C     0.616000000     0.071000000     0.746000000
H     0.351000000     0.846000000     1.460000000
C     1.613000000    -0.817000000     1.068000000
H     2.123000000    -0.766000000     2.027000000
C     1.981000000    -1.859000000     0.154000000
C     3.123000000    -2.767000000     0.522000000
O     3.696000000    -2.670000000     1.579000000
O     3.639000000    -3.536000000    -0.258000000
O     5.024000000    -0.699000000    -1.080000000
H     5.552000000    -1.085000000    -1.779000000
H     4.210000000    -1.203000000    -1.088000000
O     4.871000000    -8.258000000    -0.257000000
H     4.053000000    -8.648000000     0.052000000
H     4.891000000    -7.391000000     0.149000000
O     6.899000000    -7.002000000    -3.118000000
H     6.066000000    -6.545000000    -3.235000000
H     7.252000000    -6.650000000    -2.301000000
O     5.297000000    -0.287000000     2.160000000
H     5.523000000    -0.064000000     1.257000000
H     4.826000000    -1.118000000     2.092000000
O     6.388000000    -3.490000000     5.823000000
H     6.127000000    -3.270000000     6.717000000
H     5.568000000    -3.498000000     5.329000000
O     8.770000000    -2.957000000     2.522000000
H     8.121000000    -2.978000000     1.818000000
H     8.809000000    -2.037000000     2.784000000
O     6.754000000     2.635000000     1.650000000
H     5.877000000     2.713000000     1.274000000
H     7.235000000     2.091000000     1.027000000
O     6.609000000    -2.076000000    -2.869000000
H     7.527000000    -2.332000000    -2.957000000
H     6.137000000    -2.904000000    -2.783000000
O     6.593000000    -2.953000000     0.475000000
H     5.734000000    -3.358000000     0.588000000
H     6.464000000    -2.308000000    -0.220000000
O     6.163000000    -0.405000000     4.582000000
H     6.370000000    -1.323000000     4.408000000
H     5.667000000    -0.121000000     3.815000000
O     7.770000000     0.454000000    -3.311000000
H     7.345000000    -0.358000000    -3.034000000
H     8.700000000     0.233000000    -3.359000000
O     7.489000000    -5.529000000    -0.589000000
H     7.570000000    -5.774000000     0.333000000
H     7.830000000    -4.635000000    -0.630000000
O     2.631000000    -8.224000000     2.979000000
H     3.314000000    -7.809000000     3.506000000
H     2.403000000    -7.566000000     2.322000000
O     2.742000000    -9.749000000     0.535000000
H     2.660000000    -9.192000000     1.309000000
H     2.811000000   -10.638000000     0.885000000
O     6.991000000     1.515000000    -0.853000000
H     6.229000000     1.090000000    -1.248000000
H     7.509000000     1.817000000    -1.599000000
O     4.134000000    -3.352000000     4.195000000
H     3.956000000    -2.943000000     3.348000000
H     3.271000000    -3.598000000     4.528000000
O     3.678000000    -5.891000000     0.969000000
H     4.091000000    -5.633000000     1.792000000
H     3.746000000    -5.114000000     0.413000000
O     4.915000000    -5.911000000     3.356000000
H     5.778000000    -6.101000000     3.724000000
H     4.604000000    -5.154000000     3.852000000
O     5.440000000    -4.279000000    -1.984000000
H     5.974000000    -4.898000000    -1.486000000
H     4.771000000    -3.987000000    -1.364000000
