215
-1473.17494
C     0.203000000    -1.282000000     5.345000000
H    -0.395000000    -2.187000000     5.270000000
C    -0.226000000    -0.045000000     4.897000000
C     0.622000000     1.052000000     4.995000000
H     0.351000000     1.997000000     4.532000000
C    -1.517000000     0.034000000     4.143000000
O    -2.452000000    -1.073000000     4.436000000
H    -1.273000000    -0.027000000     3.072000000
O    -2.160000000     1.257000000     4.357000000
C    -2.494000000     1.994000000     3.222000000
C    -1.667000000     2.951000000     2.645000000
H    -0.774000000     3.235000000     3.195000000
C    -2.115000000     3.672000000     1.531000000
O    -1.277000000     4.632000000     1.012000000
C    -3.320000000     3.341000000     0.849000000
C    -3.840000000     3.885000000    -0.505000000
H    -4.930000000     3.823000000    -0.541000000
C    -3.058000000     3.199000000    -1.626000000
C    -3.715000000     2.191000000    -2.382000000
H    -4.755000000     1.981000000    -2.145000000
H    -3.541000000     4.935000000    -0.538000000
C    -4.147000000     2.348000000     1.455000000
H    -5.110000000     2.080000000     1.029000000
C    -3.743000000     1.695000000     2.629000000
C    -4.657000000     0.649000000     3.100000000
H    -5.691000000     0.887000000     2.844000000
H    -4.655000000     0.835000000     4.176000000
C    -4.164000000    -0.741000000     2.596000000
C    -4.604000000    -1.193000000     1.346000000
H    -5.214000000    -0.581000000     0.687000000
C    -3.194000000    -1.487000000     3.326000000
C    -2.706000000    -2.701000000     2.797000000
H    -1.972000000    -3.328000000     3.296000000
C    -3.171000000    -3.103000000     1.557000000
O    -2.604000000    -4.183000000     0.924000000
C    -1.562000000    -3.907000000    -0.095000000
C    -0.348000000    -4.712000000     0.101000000
C     0.394000000    -5.165000000    -1.012000000
H     0.107000000    -4.934000000    -2.034000000
C     0.100000000    -5.016000000     1.349000000
H    -0.389000000    -4.535000000     2.192000000
O    -2.156000000    -4.220000000    -1.336000000
H    -1.270000000    -2.848000000    -0.151000000
C    -4.169000000    -2.437000000     0.849000000
C    -4.770000000    -2.891000000    -0.534000000
H    -5.756000000    -2.449000000    -0.692000000
H    -4.892000000    -3.976000000    -0.513000000
C    -3.897000000    -2.519000000    -1.701000000
C    -4.184000000    -1.369000000    -2.453000000
H    -5.074000000    -0.773000000    -2.267000000
C    -2.692000000    -3.193000000    -2.023000000
C    -1.948000000    -2.811000000    -3.085000000
H    -1.040000000    -3.380000000    -3.267000000
C    -2.246000000    -1.653000000    -3.817000000
O    -1.347000000    -1.150000000    -4.780000000
C    -0.546000000    -0.059000000    -4.224000000
C     1.009000000    -0.153000000    -4.449000000
C     1.674000000    -1.366000000    -4.512000000
H     1.058000000    -2.246000000    -4.343000000
C     1.771000000     0.989000000    -4.700000000
H     1.192000000     1.906000000    -4.624000000
O    -1.056000000     1.229000000    -4.692000000
H    -0.607000000    -0.136000000    -3.128000000
C    -3.380000000    -0.926000000    -3.510000000
C    -3.756000000     0.433000000    -4.113000000
H    -4.847000000     0.488000000    -4.129000000
H    -3.427000000     0.297000000    -5.145000000
C    -3.095000000     1.540000000    -3.406000000
C    -1.798000000     1.873000000    -3.755000000
C    -1.117000000     2.857000000    -3.056000000
H    -0.112000000     3.156000000    -3.342000000
C    -1.776000000     3.587000000    -2.028000000
O    -1.095000000     4.539000000    -1.339000000
C    -0.490000000     4.229000000    -0.109000000
H    -0.434000000     3.134000000    -0.025000000
C     0.889000000     4.928000000    -0.019000000
C     1.481000000     5.142000000     1.212000000
H     0.851000000     5.011000000     2.088000000
C     1.613000000     5.071000000    -1.149000000
H     1.035000000     5.020000000    -2.068000000
C     2.986000000     5.458000000    -1.067000000
O     3.765000000     5.741000000    -2.141000000
C     3.609000000     5.625000000     0.220000000
H     4.647000000     5.947000000     0.180000000
C     2.834000000     5.534000000     1.371000000
O     3.442000000     5.743000000     2.574000000
C     2.996000000     5.105000000     3.715000000
C     3.121000000     3.693000000     3.759000000
H     3.655000000     3.133000000     2.996000000
C     2.404000000     5.858000000     4.748000000
H     2.218000000     6.916000000     4.581000000
C     1.941000000     5.201000000     5.860000000
H     1.435000000     5.723000000     6.668000000
C     2.149000000     3.831000000     6.030000000
H     1.719000000     3.314000000     6.884000000
C     2.709000000     3.095000000     5.009000000
O     2.936000000     1.773000000     5.227000000
C     1.943000000     0.837000000     5.346000000
C     2.348000000    -0.398000000     5.867000000
H     3.361000000    -0.579000000     6.217000000
C     1.479000000    -1.465000000     5.824000000
O     2.060000000    -2.700000000     6.119000000
C     1.527000000    -3.856000000     5.633000000
C     2.017000000    -4.346000000     4.458000000
H     2.780000000    -3.813000000     3.899000000
C     0.491000000    -4.491000000     6.318000000
H     0.128000000    -4.050000000     7.243000000
C    -0.182000000    -5.608000000     5.798000000
H    -1.158000000    -5.969000000     6.112000000
C     0.452000000    -6.239000000     4.744000000
H    -0.040000000    -7.146000000     4.401000000
C     1.432000000    -5.562000000     3.962000000
O     1.780000000    -6.004000000     2.814000000
C     1.292000000    -5.746000000     1.550000000
C     1.999000000    -6.222000000     0.456000000
H     2.926000000    -6.788000000     0.493000000
C     1.636000000    -5.786000000    -0.811000000
O     2.286000000    -6.254000000    -1.918000000
C     2.407000000    -5.706000000    -3.194000000
C     2.882000000    -4.434000000    -3.364000000
H     3.052000000    -3.815000000    -2.487000000
C     1.980000000    -6.432000000    -4.334000000
H     1.621000000    -7.443000000    -4.159000000
C     2.071000000    -5.845000000    -5.594000000
H     1.747000000    -6.415000000    -6.461000000
C     2.678000000    -4.570000000    -5.767000000
H     2.878000000    -4.175000000    -6.760000000
C     3.058000000    -3.868000000    -4.673000000
O     3.625000000    -2.681000000    -4.938000000
C     3.019000000    -1.467000000    -4.799000000
C     3.800000000    -0.295000000    -4.863000000
H     4.856000000    -0.477000000    -5.046000000
C     3.204000000     0.917000000    -4.835000000
O     4.033000000     1.984000000    -5.067000000
C     3.681000000     3.334000000    -4.865000000
C     3.460000000     4.137000000    -5.986000000
H     3.535000000     3.679000000    -6.968000000
C     3.092000000     5.437000000    -5.732000000
H     2.942000000     6.066000000    -6.607000000
C     3.165000000     5.984000000    -4.424000000
H     3.039000000     7.048000000    -4.242000000
C     3.509000000     5.155000000    -3.337000000
C     3.750000000     3.818000000    -3.579000000
H     3.929000000     3.199000000    -2.704000000
C     2.377000000    -0.591000000    -1.096000000
H     2.430000000    -1.349000000    -1.873000000
C     1.081000000    -0.303000000    -0.639000000
H     0.176000000    -0.777000000    -1.010000000
C     0.907000000     0.741000000     0.251000000
H    -0.113000000     1.022000000     0.505000000
C     1.923000000     1.474000000     0.701000000
H     1.742000000     2.352000000     1.316000000
C     3.222000000     1.164000000     0.263000000
H     4.025000000     1.850000000     0.519000000
C     3.468000000     0.102000000    -0.618000000
C     4.883000000    -0.153000000    -1.042000000
O     5.867000000     0.319000000    -0.502000000
O     4.965000000    -0.778000000    -2.069000000
O     4.741000000    -1.142000000     2.178000000
H     5.274000000    -0.672000000     1.537000000
H     4.536000000    -0.488000000     2.845000000
O     5.181000000    -3.656000000     2.720000000
H     4.513000000    -4.127000000     2.222000000
H     5.002000000    -2.731000000     2.547000000
O     5.313000000    -3.222000000    -0.708000000
H     5.489000000    -2.447000000    -1.242000000
H     5.129000000    -2.874000000     0.165000000
O     6.229000000     2.037000000     1.713000000
H     6.406000000     2.934000000     1.431000000
H     6.187000000     1.534000000     0.899000000
O     8.467000000     0.225000000    -0.163000000
H     8.738000000    -0.537000000    -0.674000000
H     7.523000000     0.290000000    -0.311000000
O     8.586000000     3.920000000     1.051000000
H     8.722000000     3.098000000     1.523000000
H     7.979000000     4.415000000     1.601000000
O     6.907000000     1.401000000     4.466000000
H     6.543000000     1.592000000     3.601000000
H     7.318000000     0.542000000     4.368000000
O     8.490000000     0.767000000    -5.391000000
H     7.893000000     0.153000000    -4.962000000
H     9.175000000     0.928000000    -4.742000000
O     9.022000000     3.926000000    -1.627000000
H     8.413000000     3.219000000    -1.840000000
H     8.948000000     4.028000000    -0.678000000
O     9.906000000     0.877000000     1.886000000
H    10.682000000     1.349000000     1.582000000
H     9.412000000     0.689000000     1.088000000
O     9.920000000     0.951000000    -3.077000000
H    10.595000000     1.305000000    -2.498000000
H     9.141000000     0.885000000    -2.526000000
O     8.868000000    -2.214000000    -2.367000000
H     9.367000000    -2.574000000    -3.100000000
H     8.809000000    -2.935000000    -1.741000000
O     7.199000000     1.923000000    -2.498000000
H     6.774000000     1.498000000    -1.753000000
H     6.614000000     1.754000000    -3.236000000
O     7.789000000    -2.438000000    -6.633000000
H     7.437000000    -2.060000000    -5.827000000
H     7.904000000    -3.367000000    -6.431000000
O     6.970000000    -1.253000000    -4.088000000
H     7.652000000    -1.408000000    -3.434000000
H     6.191000000    -1.036000000    -3.574000000
O     8.297000000    -0.715000000     3.565000000
H     8.815000000    -0.340000000     2.852000000
H     8.141000000    -1.620000000     3.297000000
O     6.214000000    -4.285000000    -3.464000000
H     5.787000000    -4.404000000    -2.616000000
H     6.141000000    -3.347000000    -3.640000000
O     8.157000000    -4.206000000    -0.568000000
H     7.249000000    -4.255000000    -0.268000000
H     8.657000000    -4.663000000     0.108000000
O     7.954000000    -3.484000000     2.973000000
H     8.667000000    -3.733000000     2.384000000
H     7.200000000    -3.986000000     2.662000000
