215
-1459.29201
C     0.098000000    -1.086000000     4.908000000
H    -0.331000000    -1.972000000     4.445000000
C    -0.448000000     0.186000000     4.826000000
C     0.019000000     1.245000000     5.623000000
H    -0.481000000     2.207000000     5.546000000
C    -1.641000000     0.314000000     3.798000000
O    -2.494000000    -0.911000000     3.860000000
H    -1.223000000     0.420000000     2.787000000
O    -2.535000000     1.460000000     4.185000000
C    -2.819000000     2.348000000     3.133000000
C    -1.908000000     3.410000000     2.773000000
H    -1.006000000     3.597000000     3.350000000
C    -2.131000000     4.050000000     1.584000000
O    -1.107000000     4.921000000     1.189000000
C    -3.240000000     3.756000000     0.745000000
C    -3.250000000     4.526000000    -0.580000000
H    -4.268000000     4.828000000    -0.838000000
C    -2.465000000     3.767000000    -1.645000000
C    -3.109000000     3.034000000    -2.654000000
H    -4.173000000     2.831000000    -2.561000000
H    -2.760000000     5.490000000    -0.429000000
C    -4.165000000     2.835000000     1.198000000
H    -5.038000000     2.654000000     0.576000000
C    -3.907000000     2.060000000     2.355000000
C    -4.799000000     0.950000000     2.799000000
H    -5.840000000     1.127000000     2.520000000
H    -4.897000000     0.824000000     3.880000000
C    -4.203000000    -0.319000000     2.168000000
C    -4.750000000    -0.721000000     0.945000000
H    -5.567000000    -0.112000000     0.566000000
C    -3.278000000    -1.225000000     2.750000000
C    -2.882000000    -2.360000000     2.117000000
H    -2.186000000    -2.973000000     2.684000000
C    -3.319000000    -2.672000000     0.826000000
O    -2.771000000    -3.826000000     0.206000000
C    -2.031000000    -3.623000000    -0.933000000
C    -0.895000000    -4.514000000    -0.891000000
C    -0.415000000    -5.232000000    -1.982000000
H    -1.021000000    -5.436000000    -2.861000000
C    -0.106000000    -4.496000000     0.281000000
H    -0.426000000    -3.824000000     1.074000000
O    -2.802000000    -3.750000000    -2.022000000
H    -1.646000000    -2.600000000    -0.814000000
C    -4.262000000    -1.790000000     0.191000000
C    -4.923000000    -2.068000000    -1.141000000
H    -5.918000000    -1.641000000    -1.288000000
H    -5.230000000    -3.114000000    -1.084000000
C    -4.035000000    -1.734000000    -2.382000000
C    -4.080000000    -0.537000000    -3.055000000
H    -4.810000000     0.200000000    -2.729000000
C    -3.034000000    -2.656000000    -2.790000000
C    -2.129000000    -2.310000000    -3.775000000
H    -1.404000000    -3.059000000    -4.085000000
C    -2.140000000    -1.012000000    -4.339000000
O    -1.095000000    -0.621000000    -5.038000000
C    -0.126000000     0.244000000    -4.400000000
C     1.254000000    -0.217000000    -4.848000000
C     1.397000000    -1.447000000    -5.574000000
H     0.572000000    -2.141000000    -5.712000000
C     2.378000000     0.545000000    -4.446000000
H     2.245000000     1.475000000    -3.898000000
O    -0.331000000     1.642000000    -4.608000000
H    -0.180000000     0.111000000    -3.310000000
C    -3.192000000    -0.123000000    -3.996000000
C    -3.278000000     1.346000000    -4.394000000
H    -4.272000000     1.784000000    -4.505000000
H    -2.926000000     1.402000000    -5.426000000
C    -2.433000000     2.283000000    -3.609000000
C    -1.069000000     2.341000000    -3.703000000
C    -0.409000000     3.208000000    -2.876000000
H     0.676000000     3.157000000    -2.916000000
C    -1.074000000     3.856000000    -1.808000000
O    -0.226000000     4.606000000    -1.008000000
C    -0.160000000     4.164000000     0.380000000
H    -0.426000000     3.097000000     0.395000000
C     1.264000000     4.199000000     0.899000000
C     1.539000000     4.754000000     2.114000000
H     0.813000000     5.267000000     2.740000000
C     2.258000000     3.587000000     0.154000000
H     2.014000000     3.289000000    -0.863000000
C     3.473000000     3.384000000     0.698000000
O     4.526000000     2.884000000    -0.019000000
C     3.716000000     3.793000000     2.034000000
H     4.706000000     3.758000000     2.482000000
C     2.780000000     4.506000000     2.669000000
O     3.078000000     5.176000000     3.839000000
C     2.616000000     4.885000000     5.094000000
C     2.339000000     3.568000000     5.461000000
H     2.266000000     2.819000000     4.676000000
C     2.555000000     5.904000000     6.037000000
H     2.859000000     6.905000000     5.742000000
C     2.136000000     5.677000000     7.337000000
H     2.096000000     6.528000000     8.012000000
C     1.873000000     4.324000000     7.731000000
H     1.521000000     4.127000000     8.741000000
C     1.966000000     3.262000000     6.777000000
O     1.722000000     2.006000000     7.202000000
C     1.143000000     1.006000000     6.452000000
C     1.688000000    -0.283000000     6.506000000
H     2.589000000    -0.463000000     7.088000000
C     1.244000000    -1.345000000     5.707000000
O     1.862000000    -2.612000000     5.809000000
C     1.551000000    -3.649000000     5.011000000
C     1.943000000    -3.675000000     3.656000000
H     2.442000000    -2.841000000     3.170000000
C     0.783000000    -4.673000000     5.514000000
H     0.381000000    -4.636000000     6.524000000
C     0.323000000    -5.695000000     4.740000000
H    -0.309000000    -6.414000000     5.256000000
C     0.652000000    -5.718000000     3.348000000
H     0.373000000    -6.515000000     2.664000000
C     1.571000000    -4.820000000     2.850000000
O     1.910000000    -4.888000000     1.490000000
C     1.116000000    -5.174000000     0.428000000
C     1.588000000    -5.802000000    -0.734000000
H     2.537000000    -6.330000000    -0.765000000
C     0.855000000    -5.737000000    -1.898000000
O     1.325000000    -6.312000000    -2.990000000
C     1.335000000    -5.875000000    -4.274000000
C     2.003000000    -4.680000000    -4.662000000
H     2.534000000    -4.149000000    -3.877000000
C     0.603000000    -6.524000000    -5.325000000
H     0.013000000    -7.393000000    -5.046000000
C     0.659000000    -6.051000000    -6.652000000
H     0.080000000    -6.560000000    -7.418000000
C     1.601000000    -5.091000000    -7.035000000
H     1.745000000    -4.955000000    -8.104000000
C     2.190000000    -4.338000000    -6.021000000
O     2.927000000    -3.242000000    -6.300000000
C     2.728000000    -1.970000000    -5.653000000
C     3.794000000    -1.218000000    -5.251000000
H     4.823000000    -1.535000000    -5.403000000
C     3.625000000     0.031000000    -4.653000000
O     4.790000000     0.762000000    -4.398000000
C     4.796000000     1.877000000    -3.584000000
C     4.596000000     3.139000000    -4.199000000
H     4.619000000     3.216000000    -5.283000000
C     4.456000000     4.270000000    -3.383000000
H     4.198000000     5.218000000    -3.846000000
C     4.419000000     4.215000000    -2.015000000
H     4.210000000     5.091000000    -1.407000000
C     4.662000000     2.943000000    -1.410000000
C     4.815000000     1.780000000    -2.203000000
H     4.946000000     0.843000000    -1.669000000
C     1.512000000    -1.734000000    -0.825000000
H     1.685000000    -2.464000000    -1.613000000
C     0.396000000    -0.890000000    -0.708000000
H    -0.424000000    -1.066000000    -1.399000000
C     0.249000000     0.092000000     0.286000000
H    -0.697000000     0.674000000     0.390000000
C     1.268000000     0.313000000     1.175000000
H     1.147000000     1.064000000     1.952000000
C     2.435000000    -0.449000000     1.029000000
H     3.259000000    -0.130000000     1.662000000
C     2.564000000    -1.491000000     0.040000000
C     3.920000000    -2.112000000    -0.187000000
O     4.904000000    -1.731000000     0.417000000
O     4.118000000    -3.057000000    -0.916000000
O     4.856000000    -5.085000000     0.624000000
H     4.497000000    -4.441000000     0.014000000
H     4.119000000    -5.319000000     1.187000000
O     5.043000000    -2.168000000     3.069000000
H     4.988000000    -1.313000000     3.496000000
H     4.976000000    -1.974000000     2.134000000
O     5.054000000    -4.045000000    -2.999000000
H     4.914000000    -4.976000000    -2.825000000
H     4.664000000    -3.600000000    -2.246000000
O     4.396000000    -6.538000000    -2.731000000
H     4.634000000    -7.266000000    -2.157000000
H     3.498000000    -6.728000000    -3.000000000
O     5.628000000     0.730000000     1.368000000
H     5.285000000     1.481000000     0.884000000
H     5.300000000    -0.033000000     0.892000000
O     7.297000000    -3.447000000     2.294000000
H     6.808000000    -4.251000000     2.119000000
H     6.706000000    -2.920000000     2.832000000
O     5.281000000    -4.292000000     5.196000000
H     5.222000000    -3.540000000     4.606000000
H     4.918000000    -3.976000000     6.024000000
O     9.818000000    -1.411000000    -0.359000000
H     8.895000000    -1.665000000    -0.352000000
H    10.021000000    -1.268000000    -1.283000000
O     7.983000000     0.928000000    -3.059000000
H     7.610000000     0.050000000    -2.978000000
H     7.453000000     1.352000000    -3.734000000
O     7.039000000    -6.682000000     0.246000000
H     6.419000000    -5.990000000     0.480000000
H     7.563000000    -6.305000000    -0.460000000
O     7.652000000     2.937000000    -1.121000000
H     7.630000000     2.264000000    -1.801000000
H     7.923000000     2.470000000    -0.330000000
O     8.412000000     1.299000000     0.973000000
H     8.793000000     0.715000000     1.628000000
H     7.468000000     1.247000000     1.125000000
O     4.205000000    -6.789000000     3.802000000
H     3.394000000    -7.103000000     4.203000000
H     4.381000000    -5.955000000     4.238000000
O     8.243000000    -5.440000000    -2.180000000
H     8.440000000    -5.853000000    -3.021000000
H     8.063000000    -4.526000000    -2.398000000
O     7.160000000    -2.807000000    -0.827000000
H     6.290000000    -2.509000000    -0.563000000
H     7.450000000    -3.367000000    -0.106000000
O     7.461000000    -1.147000000    -5.994000000
H     7.088000000    -1.108000000    -5.114000000
H     7.814000000    -2.034000000    -6.065000000
O     6.584000000    -1.720000000    -3.219000000
H     5.871000000    -2.307000000    -3.469000000
H     6.942000000    -2.105000000    -2.419000000
O     4.860000000     0.745000000     4.157000000
H     5.420000000     1.367000000     4.623000000
H     5.124000000     0.825000000     3.241000000
O     9.561000000    -0.910000000     2.360000000
H     9.557000000    -1.069000000     1.417000000
H     9.566000000    -1.784000000     2.750000000
