215
-1464.71453
C    -0.382000000    -1.504000000     5.048000000
H    -0.955000000    -2.187000000     4.425000000
C    -0.879000000    -0.180000000     5.053000000
C    -0.195000000     0.803000000     5.826000000
H    -0.535000000     1.830000000     5.715000000
C    -2.017000000     0.208000000     4.114000000
O    -3.036000000    -0.808000000     4.007000000
H    -1.602000000     0.288000000     3.098000000
O    -2.622000000     1.458000000     4.479000000
C    -2.887000000     2.333000000     3.480000000
C    -1.898000000     3.276000000     3.226000000
H    -1.090000000     3.300000000     3.952000000
C    -1.889000000     3.960000000     1.976000000
O    -0.712000000     4.473000000     1.710000000
C    -2.833000000     3.762000000     1.096000000
C    -2.841000000     4.506000000    -0.222000000
H    -3.883000000     4.718000000    -0.472000000
C    -2.175000000     3.891000000    -1.383000000
C    -2.958000000     3.174000000    -2.302000000
H    -4.042000000     3.135000000    -2.229000000
H    -2.431000000     5.504000000    -0.054000000
C    -3.837000000     2.768000000     1.364000000
H    -4.541000000     2.626000000     0.548000000
C    -3.897000000     2.100000000     2.575000000
C    -4.953000000     0.952000000     2.782000000
H    -5.943000000     1.262000000     2.440000000
H    -5.039000000     0.751000000     3.852000000
C    -4.651000000    -0.390000000     2.194000000
C    -5.082000000    -0.676000000     0.896000000
H    -5.656000000     0.059000000     0.338000000
C    -3.638000000    -1.123000000     2.815000000
C    -3.154000000    -2.234000000     2.237000000
H    -2.511000000    -2.897000000     2.810000000
C    -3.581000000    -2.586000000     0.905000000
O    -2.901000000    -3.654000000     0.283000000
C    -2.022000000    -3.337000000    -0.798000000
C    -0.713000000    -4.033000000    -0.822000000
C    -0.110000000    -4.654000000    -1.883000000
H    -0.703000000    -4.789000000    -2.784000000
C     0.050000000    -3.940000000     0.336000000
H    -0.463000000    -3.521000000     1.198000000
O    -2.637000000    -3.580000000    -2.098000000
H    -1.849000000    -2.257000000    -0.681000000
C    -4.471000000    -1.729000000     0.217000000
C    -4.910000000    -2.081000000    -1.168000000
H    -5.859000000    -1.576000000    -1.359000000
H    -5.173000000    -3.139000000    -1.237000000
C    -3.999000000    -1.605000000    -2.279000000
C    -4.069000000    -0.314000000    -2.884000000
H    -4.819000000     0.404000000    -2.562000000
C    -2.980000000    -2.401000000    -2.816000000
C    -2.101000000    -2.006000000    -3.807000000
H    -1.185000000    -2.553000000    -4.015000000
C    -2.185000000    -0.735000000    -4.255000000
O    -1.234000000    -0.253000000    -5.120000000
C    -0.125000000     0.507000000    -4.473000000
C     1.191000000     0.036000000    -4.905000000
C     1.329000000    -1.179000000    -5.619000000
H     0.422000000    -1.735000000    -5.840000000
C     2.241000000     0.867000000    -4.665000000
H     2.017000000     1.804000000    -4.163000000
O    -0.415000000     1.921000000    -4.716000000
H    -0.127000000     0.242000000    -3.405000000
C    -3.214000000     0.134000000    -3.829000000
C    -3.278000000     1.609000000    -4.286000000
H    -4.278000000     2.034000000    -4.174000000
H    -3.029000000     1.698000000    -5.346000000
C    -2.352000000     2.520000000    -3.386000000
C    -1.005000000     2.602000000    -3.624000000
C    -0.225000000     3.358000000    -2.739000000
H     0.852000000     3.500000000    -2.782000000
C    -0.808000000     3.907000000    -1.573000000
O     0.032000000     4.533000000    -0.654000000
C     0.079000000     3.858000000     0.672000000
H    -0.212000000     2.813000000     0.489000000
C     1.540000000     3.653000000     1.147000000
C     1.996000000     4.116000000     2.380000000
H     1.381000000     4.667000000     3.086000000
C     2.417000000     3.060000000     0.246000000
H     2.052000000     2.892000000    -0.764000000
C     3.714000000     2.821000000     0.622000000
O     4.677000000     2.443000000    -0.349000000
C     4.199000000     3.163000000     1.867000000
H     5.273000000     3.150000000     2.037000000
C     3.346000000     3.792000000     2.749000000
O     3.791000000     4.071000000     3.992000000
C     2.935000000     3.920000000     5.109000000
C     2.402000000     2.689000000     5.448000000
H     2.508000000     1.776000000     4.869000000
C     2.725000000     5.056000000     5.850000000
H     3.133000000     6.002000000     5.504000000
C     2.131000000     4.968000000     7.095000000
H     1.992000000     5.873000000     7.681000000
C     1.648000000     3.756000000     7.527000000
H     1.111000000     3.628000000     8.463000000
C     1.805000000     2.620000000     6.705000000
O     1.533000000     1.339000000     7.212000000
C     0.876000000     0.414000000     6.567000000
C     1.331000000    -0.884000000     6.612000000
H     2.170000000    -1.160000000     7.246000000
C     0.737000000    -1.938000000     5.846000000
O     1.316000000    -3.178000000     5.983000000
C     1.118000000    -4.095000000     5.005000000
C     1.740000000    -3.819000000     3.762000000
H     2.189000000    -2.854000000     3.545000000
C     0.358000000    -5.285000000     5.199000000
H    -0.207000000    -5.481000000     6.107000000
C     0.243000000    -6.229000000     4.138000000
H    -0.367000000    -7.129000000     4.150000000
C     0.870000000    -5.915000000     2.938000000
H     0.849000000    -6.545000000     2.053000000
C     1.575000000    -4.692000000     2.771000000
O     2.072000000    -4.482000000     1.470000000
C     1.337000000    -4.486000000     0.322000000
C     1.958000000    -4.974000000    -0.821000000
H     3.000000000    -5.283000000    -0.823000000
C     1.220000000    -5.114000000    -1.956000000
O     1.760000000    -5.640000000    -3.076000000
C     1.429000000    -5.213000000    -4.315000000
C     2.066000000    -4.122000000    -4.855000000
H     2.660000000    -3.460000000    -4.230000000
C     0.778000000    -6.115000000    -5.176000000
H     0.385000000    -7.060000000    -4.809000000
C     0.669000000    -5.739000000    -6.539000000
H    -0.052000000    -6.220000000    -7.195000000
C     1.308000000    -4.642000000    -7.063000000
H     1.222000000    -4.280000000    -8.084000000
C     2.135000000    -3.877000000    -6.221000000
O     2.695000000    -2.670000000    -6.792000000
C     2.593000000    -1.526000000    -6.063000000
C     3.667000000    -0.718000000    -5.809000000
H     4.654000000    -0.975000000    -6.183000000
C     3.525000000     0.445000000    -5.092000000
O     4.600000000     1.244000000    -4.935000000
C     4.541000000     2.266000000    -4.035000000
C     4.295000000     3.609000000    -4.406000000
H     4.256000000     3.888000000    -5.456000000
C     4.292000000     4.554000000    -3.381000000
H     4.042000000     5.588000000    -3.608000000
C     4.438000000     4.167000000    -2.039000000
H     4.628000000     4.850000000    -1.214000000
C     4.546000000     2.834000000    -1.657000000
C     4.709000000     1.859000000    -2.678000000
H     4.984000000     0.824000000    -2.492000000
C     1.482000000    -0.807000000    -0.464000000
H     1.856000000    -1.127000000    -1.433000000
C     0.175000000    -0.382000000    -0.306000000
H    -0.563000000    -0.465000000    -1.100000000
C    -0.220000000     0.206000000     0.890000000
H    -1.262000000     0.529000000     1.045000000
C     0.749000000     0.437000000     1.867000000
H     0.460000000     1.060000000     2.709000000
C     1.991000000    -0.078000000     1.750000000
H     2.697000000     0.145000000     2.546000000
C     2.392000000    -0.653000000     0.546000000
C     3.873000000    -0.963000000     0.378000000
O     4.606000000    -0.866000000     1.391000000
O     4.319000000    -1.519000000    -0.617000000
O     5.363000000    -3.830000000    -0.369000000
H     5.563000000    -4.005000000     0.551000000
H     4.877000000    -3.006000000    -0.356000000
O     3.834000000    -5.797000000     4.543000000
H     4.175000000    -6.514000000     5.077000000
H     2.946000000    -5.654000000     4.872000000
O     4.223000000    -0.911000000     4.175000000
H     4.699000000    -0.100000000     4.353000000
H     4.114000000    -0.922000000     3.224000000
O     4.726000000    -2.558000000    -3.091000000
H     5.187000000    -3.274000000    -2.654000000
H     4.344000000    -2.048000000    -2.376000000
O     7.282000000    -6.869000000    -0.992000000
H     6.726000000    -6.120000000    -0.777000000
H     7.034000000    -7.103000000    -1.886000000
O     6.660000000     0.672000000     2.243000000
H     7.417000000     0.095000000     2.145000000
H     5.916000000     0.142000000     1.956000000
O     7.506000000    -3.296000000     5.268000000
H     8.246000000    -3.422000000     4.674000000
H     7.442000000    -2.347000000     5.373000000
O     9.213000000     0.579000000    -0.834000000
H     9.683000000     0.510000000    -1.665000000
H     8.520000000    -0.079000000    -0.896000000
O     5.466000000    -5.604000000     2.312000000
H     5.064000000    -6.109000000     1.605000000
H     4.758000000    -5.464000000     2.940000000
O     8.944000000    -3.079000000     1.403000000
H     8.027000000    -3.034000000     1.673000000
H     9.237000000    -2.168000000     1.396000000
O     7.867000000     2.625000000     0.799000000
H     7.295000000     2.051000000     1.308000000
H     8.239000000     2.056000000     0.126000000
O     7.599000000     1.576000000    -4.198000000
H     6.765000000     1.107000000    -4.169000000
H     8.232000000     0.922000000    -4.496000000
O     4.734000000    -2.698000000     5.972000000
H     4.378000000    -2.249000000     5.206000000
H     5.565000000    -3.066000000     5.670000000
O     7.242000000    -0.646000000     5.348000000
H     7.194000000    -0.674000000     4.393000000
H     6.532000000    -0.058000000     5.607000000
O     6.340000000    -2.600000000     2.335000000
H     5.733000000    -2.007000000     1.891000000
H     5.895000000    -2.834000000     3.149000000
O     7.304000000    -1.387000000    -1.026000000
H     7.380000000    -2.334000000    -1.147000000
H     6.375000000    -1.244000000    -0.841000000
O     5.422000000     1.373000000     4.628000000
H     5.840000000     2.168000000     4.959000000
H     5.759000000     1.278000000     3.738000000
O     6.665000000    -2.090000000    -4.948000000
H     6.283000000    -2.677000000    -5.600000000
H     6.076000000    -2.151000000    -4.196000000
O     9.353000000    -0.427000000     1.590000000
H     9.939000000    -0.006000000     2.219000000
H     9.597000000    -0.049000000     0.745000000
