215
-1453.26690
C    -1.354000000    -3.495000000     4.168000000
H    -2.141000000    -3.800000000     3.483000000
C    -1.340000000    -2.135000000     4.431000000
C    -0.442000000    -1.615000000     5.350000000
H    -0.398000000    -0.552000000     5.575000000
C    -2.273000000    -1.136000000     3.741000000
O    -3.521000000    -1.678000000     3.345000000
H    -1.731000000    -0.906000000     2.812000000
O    -2.441000000     0.096000000     4.484000000
C    -2.508000000     1.220000000     3.759000000
C    -1.416000000     2.045000000     3.769000000
H    -0.604000000     1.852000000     4.465000000
C    -1.437000000     3.238000000     3.021000000
O    -0.278000000     3.986000000     2.997000000
C    -2.501000000     3.543000000     2.249000000
C    -2.509000000     4.745000000     1.365000000
H    -3.532000000     5.038000000     1.120000000
C    -1.740000000     4.515000000     0.058000000
C    -2.508000000     4.139000000    -1.037000000
H    -3.570000000     3.947000000    -0.911000000
H    -2.102000000     5.579000000     1.940000000
C    -3.664000000     2.800000000     2.331000000
H    -4.601000000     3.103000000     1.869000000
C    -3.631000000     1.581000000     2.997000000
C    -4.826000000     0.652000000     2.863000000
H    -5.661000000     1.234000000     2.468000000
H    -4.998000000     0.139000000     3.811000000
C    -4.725000000    -0.362000000     1.764000000
C    -5.165000000    -0.227000000     0.483000000
H    -5.688000000     0.697000000     0.247000000
C    -3.997000000    -1.474000000     2.052000000
C    -3.481000000    -2.321000000     1.095000000
H    -2.757000000    -3.093000000     1.343000000
C    -3.903000000    -2.155000000    -0.251000000
O    -3.389000000    -2.986000000    -1.195000000
C    -2.417000000    -2.549000000    -2.213000000
C    -1.248000000    -3.546000000    -2.379000000
C    -0.629000000    -3.637000000    -3.627000000
H    -1.052000000    -3.196000000    -4.526000000
C    -0.776000000    -4.232000000    -1.274000000
H    -1.212000000    -4.091000000    -0.288000000
O    -3.149000000    -2.149000000    -3.401000000
H    -1.929000000    -1.708000000    -1.699000000
C    -4.808000000    -1.095000000    -0.542000000
C    -5.210000000    -0.817000000    -1.986000000
H    -6.026000000    -0.109000000    -1.823000000
H    -5.642000000    -1.685000000    -2.488000000
C    -4.124000000    -0.078000000    -2.824000000
C    -4.056000000     1.316000000    -2.804000000
H    -4.830000000     1.923000000    -2.341000000
C    -3.140000000    -0.811000000    -3.482000000
C    -2.183000000    -0.151000000    -4.210000000
H    -1.375000000    -0.702000000    -4.685000000
C    -2.031000000     1.255000000    -4.156000000
O    -0.938000000     1.861000000    -4.703000000
C     0.169000000     2.181000000    -3.786000000
C     1.550000000     1.716000000    -4.190000000
C     1.753000000     0.864000000    -5.274000000
H     0.969000000     0.601000000    -5.980000000
C     2.590000000     1.945000000    -3.299000000
H     2.415000000     2.565000000    -2.424000000
O     0.041000000     3.608000000    -3.590000000
H    -0.006000000     1.777000000    -2.778000000
C    -2.989000000     1.974000000    -3.439000000
C    -2.935000000     3.506000000    -3.370000000
H    -3.895000000     3.966000000    -3.125000000
H    -2.576000000     3.937000000    -4.307000000
C    -1.926000000     3.873000000    -2.234000000
C    -0.526000000     3.992000000    -2.362000000
C     0.224000000     4.510000000    -1.321000000
H     1.286000000     4.738000000    -1.383000000
C    -0.390000000     4.762000000    -0.115000000
O     0.462000000     4.938000000     0.983000000
C     0.670000000     3.936000000     1.942000000
H     0.364000000     2.978000000     1.496000000
C     2.127000000     3.730000000     2.394000000
C     2.428000000     2.887000000     3.447000000
H     1.572000000     2.400000000     3.908000000
C     3.144000000     4.319000000     1.687000000
H     2.898000000     4.994000000     0.871000000
C     4.511000000     4.044000000     1.984000000
O     5.638000000     4.484000000     1.240000000
C     4.775000000     3.222000000     3.121000000
H     5.820000000     3.058000000     3.371000000
C     3.750000000     2.620000000     3.854000000
O     4.014000000     1.703000000     4.845000000
C     3.100000000     1.224000000     5.755000000
C     2.766000000    -0.079000000     5.711000000
H     3.167000000    -0.710000000     4.922000000
C     2.550000000     2.031000000     6.726000000
H     2.629000000     3.115000000     6.740000000
C     1.730000000     1.483000000     7.736000000
H     1.338000000     2.136000000     8.512000000
C     1.420000000     0.139000000     7.682000000
H     0.733000000    -0.385000000     8.341000000
C     1.938000000    -0.641000000     6.678000000
O     1.578000000    -1.928000000     6.637000000
C     0.530000000    -2.485000000     5.904000000
C     0.474000000    -3.817000000     5.580000000
H     1.135000000    -4.513000000     6.090000000
C    -0.400000000    -4.346000000     4.677000000
O    -0.322000000    -5.716000000     4.341000000
C    -0.482000000    -6.101000000     3.081000000
C     0.181000000    -5.536000000     1.966000000
H     0.716000000    -4.590000000     1.976000000
C    -1.313000000    -7.146000000     2.926000000
H    -1.947000000    -7.394000000     3.773000000
C    -1.468000000    -7.740000000     1.652000000
H    -2.105000000    -8.621000000     1.641000000
C    -0.689000000    -7.333000000     0.554000000
H    -0.757000000    -7.879000000    -0.383000000
C     0.063000000    -6.205000000     0.702000000
O     0.869000000    -5.794000000    -0.398000000
C     0.378000000    -5.026000000    -1.363000000
C     0.996000000    -5.143000000    -2.593000000
H     1.839000000    -5.819000000    -2.703000000
C     0.464000000    -4.516000000    -3.686000000
O     1.079000000    -4.858000000    -4.847000000
C     1.439000000    -3.976000000    -5.851000000
C     2.138000000    -2.775000000    -5.556000000
H     2.497000000    -2.566000000    -4.551000000
C     1.061000000    -4.238000000    -7.116000000
H     0.533000000    -5.173000000    -7.285000000
C     1.346000000    -3.357000000    -8.177000000
H     0.839000000    -3.612000000    -9.104000000
C     1.979000000    -2.138000000    -7.817000000
H     2.130000000    -1.408000000    -8.608000000
C     2.339000000    -1.827000000    -6.518000000
O     3.225000000    -0.769000000    -6.258000000
C     3.012000000     0.216000000    -5.354000000
C     4.025000000     0.432000000    -4.457000000
H     4.914000000    -0.190000000    -4.392000000
C     3.837000000     1.336000000    -3.398000000
O     4.878000000     1.498000000    -2.473000000
C     5.267000000     2.654000000    -1.973000000
C     5.640000000     3.641000000    -2.871000000
H     5.678000000     3.574000000    -3.955000000
C     5.962000000     4.900000000    -2.343000000
H     6.113000000     5.787000000    -2.953000000
C     6.057000000     5.143000000    -0.982000000
H     6.273000000     6.129000000    -0.579000000
C     5.770000000     4.139000000    -0.079000000
C     5.425000000     2.877000000    -0.557000000
H     5.108000000     2.067000000     0.095000000
C     1.730000000    -1.184000000    -1.594000000
H     2.316000000    -1.694000000    -2.355000000
C     0.444000000    -0.727000000    -1.812000000
H    -0.066000000    -0.930000000    -2.750000000
C    -0.263000000    -0.122000000    -0.780000000
H    -1.342000000     0.083000000    -0.959000000
C     0.299000000     0.042000000     0.491000000
H    -0.293000000     0.434000000     1.314000000
C     1.564000000    -0.383000000     0.702000000
H     1.946000000    -0.380000000     1.720000000
C     2.264000000    -1.062000000    -0.274000000
C     3.493000000    -1.776000000     0.092000000
O     3.888000000    -2.041000000     1.223000000
O     4.209000000    -2.173000000    -0.817000000
O     7.571000000    -4.480000000    -2.023000000
H     7.113000000    -4.566000000    -1.187000000
H     6.960000000    -3.999000000    -2.582000000
O     6.206000000    -3.722000000     0.520000000
H     6.408000000    -3.133000000     1.247000000
H     5.406000000    -3.361000000     0.136000000
O     4.486000000    -3.522000000     3.362000000
H     4.453000000    -2.927000000     4.110000000
H     4.426000000    -2.950000000     2.597000000
O     4.787000000    -6.344000000    -3.231000000
H     4.890000000    -5.408000000    -3.062000000
H     5.210000000    -6.770000000    -2.485000000
O     5.803000000    -0.299000000     1.705000000
H     5.773000000     0.112000000     0.842000000
H     5.073000000    -0.918000000     1.701000000
O     6.128000000    -7.408000000     2.125000000
H     6.663000000    -7.993000000     2.661000000
H     5.396000000    -7.166000000     2.693000000
O     7.347000000    -2.275000000    -4.290000000
H     7.189000000    -1.528000000    -4.867000000
H     6.475000000    -2.541000000    -3.997000000
O     3.096000000    -5.114000000     0.808000000
H     2.232000000    -5.087000000     0.396000000
H     3.283000000    -4.202000000     1.032000000
O     7.928000000    -5.555000000     1.311000000
H     7.351000000    -4.823000000     1.091000000
H     7.369000000    -6.163000000     1.794000000
O     7.154000000    -2.406000000     2.804000000
H     7.165000000    -1.708000000     2.149000000
H     6.868000000    -1.976000000     3.609000000
O     6.897000000    -4.238000000     4.696000000
H     6.049000000    -4.635000000     4.897000000
H     6.727000000    -3.683000000     3.935000000
O     9.666000000    -2.613000000    -1.944000000
H     8.897000000    -3.177000000    -2.026000000
H     9.686000000    -2.115000000    -2.761000000
O     3.915000000    -6.170000000     3.107000000
H     4.126000000    -5.305000000     3.457000000
H     3.594000000    -5.998000000     2.222000000
O     7.354000000     1.229000000     3.206000000
H     6.636000000     0.853000000     2.696000000
H     8.120000000     1.145000000     2.638000000
O     6.461000000    -0.427000000    -1.043000000
H     5.814000000    -1.126000000    -0.942000000
H     6.640000000    -0.399000000    -1.982000000
O     5.948000000    -1.246000000     4.855000000
H     6.155000000    -1.145000000     5.784000000
H     6.120000000    -0.384000000     4.476000000
O     5.050000000    -6.532000000    -0.544000000
H     5.629000000    -6.773000000     0.179000000
H     4.454000000    -5.885000000    -0.169000000
O     5.004000000    -3.250000000    -3.285000000
H     4.215000000    -3.356000000    -3.816000000
H     4.679000000    -3.141000000    -2.391000000
O     8.714000000    -0.487000000     0.826000000
H     7.938000000    -0.476000000     0.266000000
H     9.217000000     0.281000000     0.554000000
