215
-1452.99731
C    -1.523000000    -1.283000000    -4.931000000
H    -1.023000000    -2.248000000    -4.956000000
C    -0.750000000    -0.107000000    -4.675000000
C    -1.451000000     1.076000000    -4.392000000
H    -0.980000000     1.971000000    -3.995000000
C     0.711000000    -0.110000000    -4.321000000
O     1.432000000    -1.315000000    -4.799000000
H     0.663000000    -0.101000000    -3.222000000
O     1.409000000     1.048000000    -4.671000000
C     2.257000000     1.557000000    -3.686000000
C     1.884000000     2.701000000    -3.010000000
H     1.009000000     3.298000000    -3.250000000
C     2.582000000     3.196000000    -1.914000000
O     2.111000000     4.310000000    -1.252000000
C     3.768000000     2.577000000    -1.496000000
C     4.652000000     3.095000000    -0.335000000
H     5.639000000     2.647000000    -0.470000000
C     4.089000000     2.602000000     0.991000000
C     4.568000000     1.433000000     1.597000000
H     5.295000000     0.856000000     1.031000000
H     4.797000000     4.175000000    -0.264000000
C     4.168000000     1.502000000    -2.222000000
H     5.031000000     0.919000000    -1.910000000
C     3.433000000     0.934000000    -3.274000000
C     3.923000000    -0.294000000    -3.951000000
H     5.006000000    -0.421000000    -3.894000000
H     3.787000000    -0.278000000    -5.034000000
C     3.354000000    -1.557000000    -3.384000000
C     3.977000000    -2.201000000    -2.334000000
H     4.912000000    -1.831000000    -1.920000000
C     2.208000000    -2.063000000    -3.900000000
C     1.577000000    -3.096000000    -3.225000000
H     0.727000000    -3.645000000    -3.623000000
C     2.142000000    -3.731000000    -2.139000000
O     1.379000000    -4.675000000    -1.471000000
C     0.656000000    -4.170000000    -0.267000000
C    -0.723000000    -4.819000000    -0.093000000
C    -1.280000000    -4.973000000     1.136000000
H    -0.649000000    -4.826000000     2.009000000
C    -1.444000000    -5.078000000    -1.253000000
H    -1.048000000    -4.838000000    -2.236000000
O     1.520000000    -4.562000000     0.830000000
H     0.506000000    -3.080000000    -0.282000000
C     3.403000000    -3.365000000    -1.726000000
C     4.015000000    -3.911000000    -0.463000000
H     5.087000000    -3.703000000    -0.445000000
H     4.001000000    -5.002000000    -0.446000000
C     3.507000000    -3.228000000     0.799000000
C     4.187000000    -2.179000000     1.403000000
H     5.162000000    -1.922000000     0.996000000
C     2.292000000    -3.565000000     1.431000000
C     1.723000000    -2.839000000     2.534000000
H     0.749000000    -3.151000000     2.904000000
C     2.495000000    -1.908000000     3.162000000
O     1.993000000    -1.316000000     4.263000000
C     1.368000000     0.062000000     4.123000000
C     0.066000000     0.260000000     4.889000000
C    -0.802000000    -0.896000000     4.984000000
H    -0.477000000    -1.891000000     4.691000000
C    -0.524000000     1.487000000     5.125000000
H     0.003000000     2.390000000     4.827000000
O     2.314000000     1.111000000     4.402000000
H     1.031000000     0.149000000     3.080000000
C     3.753000000    -1.499000000     2.582000000
C     4.592000000    -0.479000000     3.275000000
H     5.615000000    -0.594000000     2.910000000
H     4.457000000    -0.497000000     4.358000000
C     4.080000000     0.874000000     2.757000000
C     3.029000000     1.611000000     3.365000000
C     2.559000000     2.801000000     2.751000000
H     1.756000000     3.321000000     3.268000000
C     3.071000000     3.320000000     1.565000000
O     2.409000000     4.375000000     1.127000000
C     1.468000000     4.092000000     0.003000000
H     1.131000000     3.045000000     0.021000000
C     0.192000000     4.825000000     0.143000000
C    -0.718000000     5.026000000    -0.896000000
H    -0.379000000     4.646000000    -1.857000000
C    -0.265000000     5.303000000     1.373000000
H     0.293000000     4.955000000     2.238000000
C    -1.454000000     6.081000000     1.541000000
O    -1.846000000     6.570000000     2.762000000
C    -2.228000000     6.477000000     0.454000000
H    -3.120000000     7.087000000     0.566000000
C    -1.826000000     5.925000000    -0.778000000
O    -2.609000000     6.230000000    -1.853000000
C    -2.624000000     5.555000000    -3.016000000
C    -3.084000000     4.250000000    -3.100000000
H    -3.561000000     3.812000000    -2.227000000
C    -2.029000000     6.175000000    -4.159000000
H    -1.560000000     7.152000000    -4.073000000
C    -2.033000000     5.404000000    -5.308000000
H    -1.585000000     5.777000000    -6.225000000
C    -2.539000000     4.111000000    -5.414000000
H    -2.548000000     3.571000000    -6.357000000
C    -3.067000000     3.493000000    -4.317000000
O    -3.635000000     2.263000000    -4.366000000
C    -2.803000000     1.154000000    -4.641000000
C    -3.516000000     0.028000000    -4.997000000
H    -4.595000000     0.105000000    -5.106000000
C    -2.912000000    -1.215000000    -5.105000000
O    -3.707000000    -2.268000000    -5.469000000
C    -3.553000000    -3.604000000    -5.171000000
C    -3.607000000    -4.046000000    -3.835000000
H    -3.679000000    -3.342000000    -3.010000000
C    -3.462000000    -4.516000000    -6.205000000
H    -3.436000000    -4.187000000    -7.240000000
C    -3.382000000    -5.849000000    -5.880000000
H    -3.249000000    -6.522000000    -6.724000000
C    -3.355000000    -6.296000000    -4.532000000
H    -3.121000000    -7.333000000    -4.305000000
C    -3.429000000    -5.395000000    -3.470000000
O    -3.571000000    -5.823000000    -2.148000000
C    -2.768000000    -5.554000000    -1.066000000
C    -3.279000000    -5.777000000     0.161000000
H    -4.339000000    -5.988000000     0.274000000
C    -2.551000000    -5.523000000     1.314000000
O    -3.164000000    -5.817000000     2.465000000
C    -2.742000000    -5.136000000     3.592000000
C    -3.113000000    -3.792000000     3.838000000
H    -3.834000000    -3.277000000     3.209000000
C    -1.921000000    -5.829000000     4.465000000
H    -1.737000000    -6.888000000     4.302000000
C    -1.487000000    -5.213000000     5.625000000
H    -0.857000000    -5.702000000     6.364000000
C    -1.884000000    -3.864000000     5.885000000
H    -1.511000000    -3.344000000     6.764000000
C    -2.658000000    -3.158000000     4.972000000
O    -3.032000000    -1.837000000     5.308000000
C    -2.148000000    -0.760000000     5.287000000
C    -2.658000000     0.521000000     5.559000000
H    -3.731000000     0.568000000     5.727000000
C    -1.845000000     1.647000000     5.479000000
O    -2.453000000     2.827000000     5.748000000
C    -1.930000000     4.089000000     5.434000000
C    -1.081000000     4.694000000     6.336000000
H    -1.009000000     4.161000000     7.280000000
C    -0.584000000     6.007000000     6.132000000
H     0.035000000     6.537000000     6.851000000
C    -0.851000000     6.646000000     4.926000000
H    -0.504000000     7.669000000     4.803000000
C    -1.563000000     5.975000000     3.931000000
C    -2.161000000     4.715000000     4.190000000
H    -2.844000000     4.317000000     3.445000000
C    -2.582000000    -1.218000000     0.667000000
H    -3.339000000    -1.785000000     1.204000000
C    -1.289000000    -1.271000000     1.118000000
H    -0.997000000    -1.871000000     1.976000000
C    -0.348000000    -0.437000000     0.485000000
H     0.676000000    -0.216000000     1.005000000
C    -0.690000000     0.293000000    -0.594000000
H     0.129000000     0.804000000    -1.094000000
C    -1.966000000     0.388000000    -1.047000000
H    -2.342000000     1.154000000    -1.721000000
C    -2.969000000    -0.351000000    -0.359000000
C    -4.453000000    -0.213000000    -0.655000000
O    -4.878000000     0.688000000    -1.383000000
O    -5.256000000    -1.086000000    -0.379000000
O    -8.167000000    -3.067000000     2.687000000
H    -7.971000000    -3.206000000     1.760000000
H    -9.120000000    -2.983000000     2.720000000
O    -6.154000000    -2.944000000    -1.957000000
H    -5.782000000    -2.320000000    -1.333000000
H    -6.193000000    -2.462000000    -2.783000000
O    -9.646000000    -0.615000000     0.286000000
H    -8.801000000    -0.568000000    -0.161000000
H    -9.425000000    -0.807000000     1.198000000
O    -6.490000000    -5.736000000    -1.580000000
H    -6.681000000    -4.803000000    -1.487000000
H    -5.537000000    -5.779000000    -1.656000000
O    -6.402000000     1.707000000    -3.253000000
H    -5.827000000     2.231000000    -3.809000000
H    -5.809000000     1.124000000    -2.777000000
O    -6.432000000     1.761000000     0.389000000
H    -6.088000000     1.374000000    -0.416000000
H    -6.031000000     2.629000000     0.428000000
O    -5.871000000     2.277000000    -6.225000000
H    -5.610000000     2.100000000    -7.129000000
H    -5.065000000     2.176000000    -5.719000000
O    -5.940000000     2.146000000     5.166000000
H    -5.513000000     1.812000000     4.378000000
H    -5.809000000     3.093000000     5.127000000
O    -8.635000000     3.213000000    -3.903000000
H    -7.794000000     2.764000000    -3.822000000
H    -9.245000000     2.530000000    -4.183000000
O    -8.177000000    -3.226000000    -0.262000000
H    -8.708000000    -3.237000000    -1.058000000
H    -7.289000000    -3.040000000    -0.568000000
O    -9.049000000     3.406000000    -1.082000000
H    -9.577000000     2.608000000    -1.051000000
H    -8.603000000     3.365000000    -1.929000000
O    -4.861000000     1.418000000     2.844000000
H    -4.288000000     1.712000000     2.136000000
H    -5.163000000     0.554000000     2.564000000
O    -5.888000000    -0.921000000     2.133000000
H    -5.694000000    -0.818000000     1.201000000
H    -6.621000000    -1.536000000     2.157000000
O    -4.766000000     3.971000000     0.739000000
H    -3.874000000     3.846000000     1.060000000
H    -5.098000000     4.719000000     1.236000000
O    -6.359000000    -1.987000000    -4.405000000
H    -6.808000000    -2.693000000    -4.870000000
H    -5.448000000    -2.054000000    -4.689000000
O    -8.902000000    -0.455000000    -3.910000000
H    -8.385000000    -1.058000000    -4.444000000
H    -8.567000000    -0.575000000    -3.021000000
O    -8.348000000     1.486000000     2.469000000
H    -8.049000000     0.825000000     3.093000000
H    -7.717000000     1.440000000     1.750000000
O    -7.526000000    -0.239000000    -1.451000000
H    -6.792000000    -0.738000000    -1.090000000
H    -7.167000000     0.634000000    -1.609000000
O    -2.301000000     1.818000000     1.795000000
H    -1.534000000     1.860000000     1.224000000
H    -2.287000000     0.929000000     2.150000000
