215
-1461.78957
C    -0.242000000    -0.961000000     4.564000000
H    -1.078000000    -1.647000000     4.670000000
C    -0.469000000     0.339000000     4.097000000
C     0.532000000     1.353000000     4.163000000
H     0.418000000     2.364000000     3.782000000
C    -1.896000000     0.636000000     3.541000000
O    -2.870000000    -0.357000000     3.921000000
H    -1.806000000     0.479000000     2.456000000
O    -2.407000000     1.973000000     3.831000000
C    -2.714000000     2.646000000     2.693000000
C    -1.816000000     3.599000000     2.287000000
H    -0.932000000     3.794000000     2.889000000
C    -1.990000000     4.230000000     1.001000000
O    -0.955000000     5.085000000     0.615000000
C    -3.080000000     3.915000000     0.149000000
C    -3.277000000     4.479000000    -1.243000000
H    -4.329000000     4.495000000    -1.538000000
C    -2.491000000     3.631000000    -2.194000000
C    -3.198000000     2.592000000    -2.821000000
H    -4.246000000     2.460000000    -2.566000000
H    -2.963000000     5.521000000    -1.323000000
C    -4.041000000     2.970000000     0.606000000
H    -4.920000000     2.721000000     0.017000000
C    -3.792000000     2.283000000     1.841000000
C    -4.880000000     1.202000000     2.383000000
H    -5.857000000     1.438000000     1.957000000
H    -5.026000000     1.469000000     3.431000000
C    -4.519000000    -0.249000000     2.102000000
C    -5.042000000    -0.860000000     0.945000000
H    -5.640000000    -0.359000000     0.188000000
C    -3.582000000    -0.973000000     2.876000000
C    -3.231000000    -2.228000000     2.554000000
H    -2.397000000    -2.701000000     3.066000000
C    -3.675000000    -2.815000000     1.406000000
O    -3.035000000    -4.012000000     0.985000000
C    -1.903000000    -3.880000000     0.050000000
C    -0.753000000    -4.830000000     0.404000000
C     0.141000000    -5.398000000    -0.563000000
H    -0.046000000    -5.117000000    -1.596000000
C    -0.455000000    -5.109000000     1.763000000
H    -1.041000000    -4.767000000     2.612000000
O    -2.396000000    -4.191000000    -1.331000000
H    -1.521000000    -2.850000000     0.105000000
C    -4.564000000    -2.105000000     0.587000000
C    -4.968000000    -2.705000000    -0.770000000
H    -5.890000000    -2.215000000    -1.090000000
H    -5.029000000    -3.794000000    -0.721000000
C    -3.882000000    -2.347000000    -1.862000000
C    -3.996000000    -1.175000000    -2.627000000
H    -4.844000000    -0.519000000    -2.448000000
C    -2.743000000    -3.170000000    -2.103000000
C    -1.841000000    -2.829000000    -3.055000000
H    -1.002000000    -3.509000000    -3.179000000
C    -1.970000000    -1.641000000    -3.802000000
O    -1.016000000    -1.243000000    -4.601000000
C    -0.128000000    -0.282000000    -3.994000000
C     1.384000000    -0.676000000    -4.185000000
C     1.823000000    -2.004000000    -4.163000000
H     1.114000000    -2.824000000    -4.080000000
C     2.366000000     0.340000000    -4.243000000
H     2.110000000     1.372000000    -4.018000000
O    -0.297000000     1.031000000    -4.547000000
H    -0.362000000    -0.283000000    -2.919000000
C    -3.036000000    -0.790000000    -3.567000000
C    -3.194000000     0.547000000    -4.233000000
H    -4.265000000     0.755000000    -4.186000000
H    -2.980000000     0.569000000    -5.303000000
C    -2.437000000     1.649000000    -3.515000000
C    -1.069000000     1.904000000    -3.769000000
C    -0.468000000     3.052000000    -3.254000000
H     0.568000000     3.226000000    -3.533000000
C    -1.144000000     3.888000000    -2.401000000
O    -0.493000000     4.907000000    -1.673000000
C    -0.005000000     4.623000000    -0.386000000
H     0.022000000     3.524000000    -0.373000000
C     1.385000000     5.061000000    -0.098000000
C     1.800000000     5.363000000     1.171000000
H     1.088000000     5.311000000     1.991000000
C     2.244000000     5.057000000    -1.192000000
H     1.848000000     4.690000000    -2.135000000
C     3.595000000     5.380000000    -0.973000000
O     4.465000000     5.455000000    -2.025000000
C     4.025000000     5.702000000     0.309000000
H     5.034000000     6.016000000     0.565000000
C     3.145000000     5.669000000     1.401000000
O     3.630000000     5.959000000     2.621000000
C     3.112000000     5.330000000     3.753000000
C     3.190000000     3.950000000     3.878000000
H     3.865000000     3.350000000     3.274000000
C     2.389000000     6.012000000     4.762000000
H     2.347000000     7.097000000     4.707000000
C     1.691000000     5.385000000     5.810000000
H     1.003000000     5.971000000     6.413000000
C     1.710000000     3.954000000     5.839000000
H     1.041000000     3.427000000     6.514000000
C     2.499000000     3.287000000     4.935000000
O     2.739000000     1.971000000     5.000000000
C     1.769000000     1.030000000     4.784000000
C     1.961000000    -0.255000000     5.250000000
H     2.930000000    -0.578000000     5.623000000
C     0.994000000    -1.236000000     5.140000000
O     1.445000000    -2.400000000     5.710000000
C     0.771000000    -3.631000000     5.576000000
C     1.048000000    -4.467000000     4.513000000
H     1.791000000    -4.184000000     3.772000000
C    -0.211000000    -3.972000000     6.500000000
H    -0.433000000    -3.217000000     7.249000000
C    -0.907000000    -5.184000000     6.464000000
H    -1.657000000    -5.512000000     7.178000000
C    -0.663000000    -6.041000000     5.363000000
H    -1.121000000    -7.020000000     5.247000000
C     0.402000000    -5.680000000     4.490000000
O     0.681000000    -6.447000000     3.393000000
C     0.556000000    -5.997000000     2.095000000
C     1.372000000    -6.528000000     1.134000000
H     2.199000000    -7.160000000     1.449000000
C     1.215000000    -6.207000000    -0.238000000
O     1.965000000    -6.814000000    -1.257000000
C     2.194000000    -6.265000000    -2.502000000
C     2.948000000    -5.117000000    -2.740000000
H     3.362000000    -4.536000000    -1.920000000
C     1.676000000    -7.000000000    -3.567000000
H     1.116000000    -7.905000000    -3.348000000
C     1.766000000    -6.502000000    -4.854000000
H     1.200000000    -7.081000000    -5.580000000
C     2.503000000    -5.356000000    -5.145000000
H     2.525000000    -5.063000000    -6.192000000
C     3.081000000    -4.659000000    -4.074000000
O     3.739000000    -3.544000000    -4.358000000
C     3.198000000    -2.285000000    -4.281000000
C     4.156000000    -1.272000000    -4.405000000
H     5.205000000    -1.554000000    -4.432000000
C     3.786000000     0.103000000    -4.315000000
O     4.775000000     1.082000000    -4.125000000
C     4.422000000     2.469000000    -4.157000000
C     3.916000000     2.994000000    -5.350000000
H     3.935000000     2.389000000    -6.253000000
C     3.631000000     4.364000000    -5.470000000
H     3.281000000     4.837000000    -6.384000000
C     3.882000000     5.192000000    -4.423000000
H     3.688000000     6.255000000    -4.548000000
C     4.323000000     4.666000000    -3.179000000
C     4.560000000     3.295000000    -3.061000000
H     4.840000000     2.884000000    -2.094000000
C     2.644000000    -1.210000000    -0.573000000
H     3.253000000    -1.990000000    -1.023000000
C     1.265000000    -1.503000000    -0.520000000
H     0.847000000    -2.482000000    -0.741000000
C     0.300000000    -0.548000000    -0.157000000
H    -0.755000000    -0.837000000    -0.241000000
C     0.745000000     0.754000000     0.065000000
H     0.002000000     1.510000000     0.303000000
C     2.127000000     0.969000000     0.078000000
H     2.522000000     1.939000000     0.372000000
C     3.106000000     0.048000000    -0.170000000
C     4.513000000     0.483000000    -0.198000000
O     4.876000000     1.473000000     0.416000000
O     5.352000000    -0.327000000    -0.478000000
O     5.498000000    -1.777000000     1.749000000
H     5.285000000    -1.824000000     0.817000000
H     5.526000000    -0.840000000     1.941000000
O     6.959000000    -4.517000000     1.853000000
H     6.868000000    -3.632000000     1.499000000
H     6.683000000    -5.090000000     1.138000000
O     5.648000000    -2.904000000    -1.083000000
H     5.489000000    -1.963000000    -1.015000000
H     6.601000000    -2.984000000    -1.119000000
O     6.399000000    -5.564000000    -1.872000000
H     6.252000000    -5.880000000    -2.763000000
H     5.677000000    -4.957000000    -1.711000000
O     5.989000000     0.795000000     2.882000000
H     6.310000000     1.582000000     3.322000000
H     5.523000000     1.123000000     2.113000000
O     8.588000000    -1.546000000     1.618000000
H     8.527000000    -2.368000000     2.105000000
H     7.754000000    -1.107000000     1.784000000
O     9.696000000     3.360000000     0.987000000
H     8.772000000     3.610000000     0.983000000
H     9.695000000     2.444000000     1.263000000
O     7.730000000     5.148000000    -3.542000000
H     7.531000000     4.565000000    -4.275000000
H     7.142000000     4.863000000    -2.843000000
O     7.075000000    -1.289000000     4.431000000
H     6.315000000    -1.123000000     4.989000000
H     7.123000000    -0.524000000     3.857000000
O     7.856000000     0.481000000    -3.948000000
H     7.950000000     0.360000000    -3.004000000
H     6.924000000     0.663000000    -4.074000000
O    10.251000000     0.539000000     1.618000000
H    10.710000000     0.303000000     0.812000000
H     9.581000000    -0.137000000     1.718000000
O     7.328000000     4.970000000     1.753000000
H     6.617000000     5.611000000     1.760000000
H     6.981000000     4.233000000     1.252000000
O     6.801000000     2.953000000     4.465000000
H     6.663000000     3.819000000     4.081000000
H     7.442000000     3.099000000     5.161000000
O     9.772000000     2.740000000    -2.038000000
H     9.965000000     1.897000000    -1.629000000
H     9.569000000     3.321000000    -1.304000000
O     8.257000000    -3.270000000    -1.376000000
H     9.052000000    -2.842000000    -1.693000000
H     8.511000000    -4.184000000    -1.250000000
O     4.702000000    -3.827000000     3.472000000
H     4.904000000    -3.102000000     2.881000000
H     5.378000000    -4.480000000     3.290000000
O     6.952000000     3.149000000    -0.395000000
H     7.543000000     2.521000000    -0.810000000
H     6.222000000     2.616000000    -0.078000000
O     8.006000000     0.773000000    -1.004000000
H     8.769000000     0.197000000    -0.957000000
H     7.299000000     0.267000000    -0.602000000
O     8.338000000    -3.848000000     3.971000000
H     7.674000000    -3.208000000     4.228000000
H     8.039000000    -4.177000000     3.124000000
