215
-1444.79107
C     1.094000000    -2.395000000     4.451000000
H     0.294000000    -3.023000000     4.065000000
C     0.864000000    -1.063000000     4.545000000
C     1.911000000    -0.283000000     5.101000000
H     1.742000000     0.791000000     5.121000000
C    -0.429000000    -0.429000000     4.088000000
O    -1.547000000    -1.343000000     4.467000000
H    -0.292000000    -0.391000000     2.997000000
O    -0.661000000     0.819000000     4.724000000
C    -1.109000000     1.908000000     3.990000000
C    -0.189000000     2.862000000     3.515000000
H     0.861000000     2.843000000     3.794000000
C    -0.605000000     3.803000000     2.602000000
O     0.318000000     4.484000000     1.964000000
C    -1.945000000     3.919000000     2.188000000
C    -2.442000000     4.889000000     1.136000000
H    -3.467000000     5.092000000     1.453000000
C    -2.255000000     4.311000000    -0.249000000
C    -3.322000000     3.571000000    -0.812000000
H    -4.202000000     3.295000000    -0.237000000
H    -1.994000000     5.866000000     1.327000000
C    -2.825000000     2.961000000     2.698000000
H    -3.818000000     2.972000000     2.256000000
C    -2.454000000     1.975000000     3.633000000
C    -3.526000000     0.924000000     4.052000000
H    -4.454000000     1.434000000     3.783000000
H    -3.497000000     0.747000000     5.129000000
C    -3.385000000    -0.372000000     3.178000000
C    -4.296000000    -0.559000000     2.198000000
H    -4.911000000     0.295000000     1.925000000
C    -2.557000000    -1.394000000     3.538000000
C    -2.611000000    -2.603000000     2.798000000
H    -1.878000000    -3.380000000     3.000000000
C    -3.440000000    -2.777000000     1.730000000
O    -3.158000000    -3.793000000     0.933000000
C    -2.437000000    -3.497000000    -0.285000000
C    -1.405000000    -4.474000000    -0.533000000
C    -0.792000000    -4.543000000    -1.811000000
H    -1.185000000    -3.862000000    -2.562000000
C    -0.841000000    -5.326000000     0.437000000
H    -1.311000000    -5.384000000     1.415000000
O    -3.344000000    -3.338000000    -1.464000000
H    -1.933000000    -2.536000000    -0.105000000
C    -4.268000000    -1.733000000     1.399000000
C    -5.270000000    -1.897000000     0.287000000
H    -6.240000000    -1.469000000     0.547000000
H    -5.478000000    -2.950000000     0.085000000
C    -4.599000000    -1.345000000    -1.009000000
C    -4.817000000     0.033000000    -1.236000000
H    -5.518000000     0.600000000    -0.629000000
C    -3.733000000    -2.049000000    -1.799000000
C    -3.000000000    -1.363000000    -2.832000000
H    -2.223000000    -1.930000000    -3.338000000
C    -3.270000000    -0.069000000    -3.106000000
O    -2.660000000     0.533000000    -4.113000000
C    -1.397000000     1.233000000    -3.860000000
C    -0.335000000     0.843000000    -4.882000000
C    -0.401000000    -0.357000000    -5.595000000
H    -1.212000000    -1.076000000    -5.507000000
C     0.741000000     1.673000000    -5.107000000
H     0.917000000     2.461000000    -4.380000000
O    -1.666000000     2.610000000    -3.962000000
H    -1.097000000     1.221000000    -2.802000000
C    -4.193000000     0.709000000    -2.334000000
C    -4.350000000     2.229000000    -2.652000000
H    -5.247000000     2.560000000    -2.125000000
H    -4.526000000     2.462000000    -3.704000000
C    -3.159000000     3.060000000    -2.099000000
C    -1.985000000     3.271000000    -2.787000000
C    -0.877000000     3.932000000    -2.196000000
H    -0.004000000     4.069000000    -2.829000000
C    -1.066000000     4.468000000    -0.939000000
O     0.010000000     4.988000000    -0.315000000
C     0.621000000     4.073000000     0.648000000
H     0.165000000     3.073000000     0.615000000
C     2.135000000     4.050000000     0.513000000
C     3.005000000     3.910000000     1.571000000
H     2.660000000     3.856000000     2.601000000
C     2.655000000     4.161000000    -0.794000000
H     1.942000000     4.283000000    -1.606000000
C     4.040000000     4.135000000    -1.041000000
O     4.668000000     4.192000000    -2.272000000
C     4.887000000     3.835000000     0.010000000
H     5.949000000     3.623000000    -0.083000000
C     4.384000000     3.796000000     1.327000000
O     5.270000000     3.613000000     2.374000000
C     4.885000000     3.102000000     3.618000000
C     4.664000000     1.703000000     3.915000000
H     4.881000000     0.871000000     3.249000000
C     4.682000000     4.014000000     4.619000000
H     4.735000000     5.059000000     4.326000000
C     4.341000000     3.655000000     5.926000000
H     4.061000000     4.327000000     6.732000000
C     4.119000000     2.287000000     6.214000000
H     3.784000000     1.966000000     7.198000000
C     4.228000000     1.325000000     5.208000000
O     4.251000000    -0.027000000     5.609000000
C     3.173000000    -0.877000000     5.347000000
C     3.315000000    -2.224000000     5.306000000
H     4.317000000    -2.601000000     5.497000000
C     2.235000000    -3.004000000     4.831000000
O     2.414000000    -4.343000000     4.947000000
C     1.611000000    -5.288000000     4.392000000
C     1.489000000    -5.398000000     3.037000000
H     2.049000000    -4.703000000     2.416000000
C     0.966000000    -6.127000000     5.252000000
H     0.918000000    -5.898000000     6.313000000
C     0.271000000    -7.211000000     4.729000000
H    -0.088000000    -7.931000000     5.460000000
C     0.288000000    -7.449000000     3.363000000
H     0.018000000    -8.427000000     2.974000000
C     0.869000000    -6.483000000     2.504000000
O     0.933000000    -6.794000000     1.162000000
C     0.406000000    -6.008000000     0.175000000
C     1.012000000    -5.927000000    -1.039000000
H     1.974000000    -6.400000000    -1.219000000
C     0.420000000    -5.231000000    -2.010000000
O     1.075000000    -5.176000000    -3.231000000
C     0.503000000    -4.775000000    -4.427000000
C     0.933000000    -3.553000000    -5.002000000
H     1.861000000    -3.059000000    -4.725000000
C    -0.579000000    -5.373000000    -5.043000000
H    -1.062000000    -6.284000000    -4.700000000
C    -1.345000000    -4.786000000    -6.077000000
H    -2.235000000    -5.227000000    -6.520000000
C    -0.798000000    -3.681000000    -6.759000000
H    -1.292000000    -3.293000000    -7.646000000
C     0.346000000    -3.110000000    -6.180000000
O     0.795000000    -1.992000000    -6.906000000
C     0.647000000    -0.730000000    -6.445000000
C     1.680000000     0.140000000    -6.694000000
H     2.528000000    -0.122000000    -7.322000000
C     1.747000000     1.371000000    -5.974000000
O     2.764000000     2.292000000    -6.227000000
C     2.989000000     3.371000000    -5.419000000
C     2.439000000     4.610000000    -5.703000000
H     1.816000000     4.748000000    -6.583000000
C     2.638000000     5.725000000    -4.919000000
H     2.149000000     6.668000000    -5.150000000
C     3.490000000     5.585000000    -3.840000000
H     3.693000000     6.412000000    -3.165000000
C     4.017000000     4.342000000    -3.438000000
C     3.768000000     3.247000000    -4.266000000
H     4.215000000     2.315000000    -3.930000000
C     1.398000000    -0.729000000    -1.436000000
H     1.297000000    -1.271000000    -2.372000000
C     0.234000000    -0.231000000    -0.770000000
H    -0.763000000    -0.405000000    -1.167000000
C     0.377000000     0.301000000     0.511000000
H    -0.573000000     0.619000000     0.972000000
C     1.683000000     0.469000000     1.093000000
H     1.834000000     0.852000000     2.099000000
C     2.778000000     0.046000000     0.342000000
H     3.751000000     0.103000000     0.822000000
C     2.615000000    -0.486000000    -0.923000000
C     3.808000000    -0.816000000    -1.791000000
O     4.907000000    -0.580000000    -1.386000000
O     3.637000000    -1.449000000    -2.851000000
O     6.823000000    -2.395000000    -2.045000000
H     6.084000000    -1.863000000    -1.751000000
H     6.947000000    -2.147000000    -2.961000000
O    10.066000000    -0.830000000    -1.654000000
H     9.753000000    -0.353000000    -0.885000000
H     9.293000000    -1.289000000    -1.982000000
O     7.847000000     1.742000000    -2.190000000
H     7.073000000     1.187000000    -2.093000000
H     7.991000000     1.788000000    -3.135000000
O     7.084000000    -0.753000000    -4.753000000
H     7.334000000     0.165000000    -4.862000000
H     6.168000000    -0.786000000    -5.031000000
O     3.550000000    -4.108000000    -2.558000000
H     3.555000000    -3.196000000    -2.848000000
H     2.763000000    -4.481000000    -2.954000000
O     6.234000000    -0.014000000     1.017000000
H     5.890000000    -0.820000000     1.401000000
H     5.845000000     0.019000000     0.142000000
O     6.654000000    -2.478000000     2.254000000
H     6.809000000    -3.041000000     1.496000000
H     7.243000000    -2.816000000     2.928000000
O     7.255000000    -4.060000000     0.068000000
H     7.063000000    -3.381000000    -0.579000000
H     6.807000000    -4.839000000    -0.263000000
O    10.002000000     1.990000000    -0.412000000
H     9.733000000     2.608000000     0.268000000
H     9.283000000     2.003000000    -1.044000000
O     8.362000000     0.244000000     2.927000000
H     7.585000000    -0.193000000     2.578000000
H     8.826000000    -0.442000000     3.408000000
O     4.295000000    -2.779000000    -6.545000000
H     4.301000000    -1.942000000    -6.080000000
H     4.967000000    -3.301000000    -6.106000000
O     5.444000000    -4.530000000     3.806000000
H     5.506000000    -5.392000000     3.394000000
H     5.369000000    -3.919000000     3.072000000
O     7.657000000     2.049000000    -5.080000000
H     8.510000000     2.448000000    -5.254000000
H     7.174000000     2.151000000    -5.900000000
O     7.972000000     2.858000000     1.031000000
H     7.330000000     3.171000000     1.668000000
H     7.779000000     1.926000000     0.934000000
O     7.935000000     4.547000000    -3.191000000
H     7.318000000     3.839000000    -3.002000000
H     7.770000000     4.769000000    -4.107000000
O     4.455000000    -0.553000000    -5.115000000
H     4.314000000     0.342000000    -5.424000000
H     4.010000000    -0.587000000    -4.268000000
O     5.634000000    -5.735000000    -0.998000000
H     4.936000000    -5.262000000    -1.451000000
H     5.915000000    -6.403000000    -1.623000000
O     9.309000000    -2.913000000    -5.100000000
H     8.744000000    -2.206000000    -4.789000000
H     9.798000000    -2.528000000    -5.827000000
O     4.806000000    -5.155000000    -4.630000000
H     4.469000000    -4.747000000    -3.833000000
H     4.214000000    -5.890000000    -4.792000000
