215
-1454.46434
C     0.730000000    -2.357000000     4.996000000
H    -0.101000000    -3.008000000     4.737000000
C     0.716000000    -0.981000000     4.903000000
C     1.881000000    -0.261000000     5.037000000
H     1.715000000     0.811000000     4.966000000
C    -0.602000000    -0.355000000     4.487000000
O    -1.793000000    -1.178000000     4.795000000
H    -0.675000000    -0.248000000     3.395000000
O    -0.799000000     0.935000000     5.073000000
C    -1.210000000     1.945000000     4.208000000
C    -0.264000000     2.966000000     3.751000000
H     0.744000000     2.944000000     4.156000000
C    -0.653000000     3.818000000     2.712000000
O     0.377000000     4.462000000     2.094000000
C    -1.980000000     3.874000000     2.272000000
C    -2.496000000     4.744000000     1.186000000
H    -3.531000000     4.960000000     1.458000000
C    -2.347000000     4.193000000    -0.221000000
C    -3.372000000     3.505000000    -0.876000000
H    -4.307000000     3.373000000    -0.337000000
H    -1.987000000     5.705000000     1.081000000
C    -2.894000000     2.973000000     2.756000000
H    -3.890000000     2.927000000     2.324000000
C    -2.552000000     1.959000000     3.748000000
C    -3.590000000     1.013000000     4.209000000
H    -4.581000000     1.463000000     4.115000000
H    -3.464000000     0.904000000     5.288000000
C    -3.549000000    -0.325000000     3.407000000
C    -4.292000000    -0.421000000     2.284000000
H    -4.930000000     0.408000000     1.989000000
C    -2.655000000    -1.387000000     3.761000000
C    -2.308000000    -2.378000000     2.829000000
H    -1.530000000    -3.105000000     3.052000000
C    -3.176000000    -2.456000000     1.754000000
O    -2.859000000    -3.475000000     0.859000000
C    -2.283000000    -3.015000000    -0.331000000
C    -1.166000000    -4.005000000    -0.638000000
C    -1.143000000    -4.641000000    -1.867000000
H    -1.921000000    -4.280000000    -2.534000000
C    -0.121000000    -4.307000000     0.304000000
H    -0.067000000    -3.794000000     1.261000000
O    -3.312000000    -3.071000000    -1.314000000
H    -1.867000000    -2.016000000    -0.134000000
C    -4.193000000    -1.553000000     1.441000000
C    -5.142000000    -1.662000000     0.297000000
H    -6.083000000    -1.155000000     0.520000000
H    -5.360000000    -2.709000000     0.077000000
C    -4.602000000    -1.056000000    -0.979000000
C    -4.883000000     0.219000000    -1.442000000
H    -5.606000000     0.812000000    -0.888000000
C    -3.818000000    -1.861000000    -1.795000000
C    -3.299000000    -1.409000000    -3.056000000
H    -2.577000000    -2.013000000    -3.599000000
C    -3.590000000    -0.166000000    -3.460000000
O    -2.800000000     0.349000000    -4.461000000
C    -1.644000000     0.996000000    -3.975000000
C    -0.358000000     0.591000000    -4.767000000
C    -0.223000000    -0.684000000    -5.285000000
H    -1.029000000    -1.413000000    -5.290000000
C     0.767000000     1.415000000    -4.781000000
H     0.687000000     2.422000000    -4.380000000
O    -1.777000000     2.423000000    -3.974000000
H    -1.472000000     0.649000000    -2.946000000
C    -4.374000000     0.671000000    -2.666000000
C    -4.481000000     2.118000000    -2.756000000
H    -5.426000000     2.447000000    -2.319000000
H    -4.451000000     2.395000000    -3.812000000
C    -3.274000000     2.822000000    -2.093000000
C    -2.031000000     2.990000000    -2.758000000
C    -0.963000000     3.598000000    -2.114000000
H    -0.036000000     3.580000000    -2.682000000
C    -1.133000000     4.326000000    -0.929000000
O    -0.040000000     4.938000000    -0.319000000
C     0.668000000     4.107000000     0.685000000
H     0.323000000     3.071000000     0.553000000
C     2.225000000     4.077000000     0.537000000
C     3.051000000     3.736000000     1.564000000
H     2.744000000     3.367000000     2.539000000
C     2.841000000     4.333000000    -0.720000000
H     2.184000000     4.570000000    -1.554000000
C     4.200000000     4.461000000    -0.898000000
O     4.711000000     4.830000000    -2.106000000
C     5.033000000     4.062000000     0.144000000
H     6.120000000     4.055000000     0.165000000
C     4.403000000     3.777000000     1.394000000
O     5.273000000     3.561000000     2.438000000
C     4.973000000     3.007000000     3.645000000
C     4.704000000     1.626000000     3.865000000
H     4.660000000     0.937000000     3.026000000
C     4.873000000     3.925000000     4.690000000
H     4.977000000     4.996000000     4.543000000
C     4.599000000     3.473000000     6.003000000
H     4.368000000     4.086000000     6.870000000
C     4.391000000     2.132000000     6.208000000
H     4.069000000     1.757000000     7.176000000
C     4.492000000     1.181000000     5.182000000
O     4.294000000    -0.184000000     5.480000000
C     3.096000000    -0.873000000     5.301000000
C     3.101000000    -2.279000000     5.445000000
H     4.005000000    -2.773000000     5.790000000
C     1.948000000    -2.990000000     5.295000000
O     1.909000000    -4.363000000     5.509000000
C     1.576000000    -5.181000000     4.427000000
C     1.921000000    -4.867000000     3.109000000
H     2.316000000    -3.891000000     2.838000000
C     0.862000000    -6.333000000     4.681000000
H     0.606000000    -6.611000000     5.700000000
C     0.490000000    -7.150000000     3.622000000
H    -0.206000000    -7.976000000     3.745000000
C     0.954000000    -6.963000000     2.366000000
H     0.479000000    -7.539000000     1.575000000
C     1.673000000    -5.805000000     2.097000000
O     1.899000000    -5.505000000     0.779000000
C     0.839000000    -5.302000000    -0.041000000
C     0.830000000    -5.890000000    -1.298000000
H     1.648000000    -6.554000000    -1.566000000
C    -0.145000000    -5.544000000    -2.231000000
O    -0.195000000    -6.116000000    -3.497000000
C    -0.361000000    -5.363000000    -4.645000000
C     0.487000000    -4.278000000    -4.946000000
H     1.051000000    -3.919000000    -4.090000000
C    -1.253000000    -5.807000000    -5.623000000
H    -1.922000000    -6.658000000    -5.519000000
C    -1.261000000    -5.130000000    -6.862000000
H    -1.871000000    -5.447000000    -7.704000000
C    -0.432000000    -4.002000000    -7.105000000
H    -0.373000000    -3.401000000    -8.009000000
C     0.427000000    -3.537000000    -6.119000000
O     1.212000000    -2.392000000    -6.362000000
C     0.987000000    -1.151000000    -5.824000000
C     2.060000000    -0.230000000    -5.883000000
H     3.056000000    -0.448000000    -6.261000000
C     1.890000000     1.045000000    -5.433000000
O     2.925000000     1.962000000    -5.437000000
C     3.091000000     3.255000000    -4.970000000
C     2.424000000     4.384000000    -5.499000000
H     1.828000000     4.245000000    -6.398000000
C     2.536000000     5.612000000    -4.983000000
H     1.941000000     6.408000000    -5.423000000
C     3.334000000     5.810000000    -3.926000000
H     3.359000000     6.768000000    -3.413000000
C     4.062000000     4.739000000    -3.300000000
C     3.988000000     3.493000000    -3.873000000
H     4.416000000     2.720000000    -3.240000000
C     0.715000000    -0.498000000    -1.098000000
H     0.634000000    -0.998000000    -2.060000000
C    -0.363000000     0.061000000    -0.502000000
H    -1.371000000    -0.045000000    -0.895000000
C    -0.203000000     0.722000000     0.752000000
H    -1.003000000     1.207000000     1.175000000
C     1.078000000     0.759000000     1.299000000
H     1.112000000     1.255000000     2.266000000
C     2.094000000    -0.078000000     0.749000000
H     3.045000000    -0.174000000     1.267000000
C     1.905000000    -0.707000000    -0.459000000
C     2.975000000    -1.636000000    -1.103000000
O     3.809000000    -2.138000000    -0.353000000
O     3.151000000    -1.765000000    -2.306000000
O     3.160000000    -6.059000000    -4.837000000
H     3.586000000    -5.274000000    -4.491000000
H     3.055000000    -5.881000000    -5.772000000
O     6.412000000    -2.766000000     0.295000000
H     5.489000000    -2.797000000     0.044000000
H     6.834000000    -3.421000000    -0.261000000
O     7.811000000    -2.175000000    -2.526000000
H     7.137000000    -1.764000000    -3.067000000
H     7.918000000    -1.581000000    -1.783000000
O     9.371000000    -3.157000000    -4.521000000
H     8.905000000    -2.769000000    -3.780000000
H     8.762000000    -3.077000000    -5.255000000
O     4.228000000    -3.515000000    -4.056000000
H     3.795000000    -2.789000000    -3.607000000
H     4.781000000    -3.916000000    -3.386000000
O     5.160000000    -2.443000000     2.840000000
H     5.500000000    -2.541000000     1.951000000
H     4.712000000    -1.597000000     2.833000000
O     5.814000000    -4.869000000     3.659000000
H     5.460000000    -5.645000000     3.225000000
H     5.350000000    -4.135000000     3.255000000
O     5.032000000    -4.222000000    -1.661000000
H     4.539000000    -3.463000000    -1.349000000
H     5.101000000    -4.794000000    -0.897000000
O     8.283000000    -5.954000000     1.084000000
H     8.562000000    -5.352000000     0.394000000
H     7.342000000    -6.061000000     0.943000000
O     8.221000000    -0.682000000     0.017000000
H     9.131000000    -0.882000000     0.234000000
H     7.728000000    -1.440000000     0.331000000
O     8.421000000    -0.472000000     2.825000000
H     8.552000000     0.390000000     3.221000000
H     8.483000000    -0.314000000     1.883000000
O     5.439000000    -2.222000000    -6.148000000
H     4.977000000    -2.773000000    -5.516000000
H     5.014000000    -2.409000000    -6.985000000
O     7.942000000    -1.608000000    -6.296000000
H     6.999000000    -1.725000000    -6.181000000
H     8.063000000    -1.556000000    -7.244000000
O     5.630000000     0.411000000     0.736000000
H     6.555000000     0.217000000     0.583000000
H     5.171000000    -0.036000000     0.025000000
O     6.616000000     1.491000000    -3.450000000
H     6.885000000     1.347000000    -4.357000000
H     6.091000000     0.721000000    -3.231000000
O     5.465000000    -0.868000000    -3.208000000
H     4.686000000    -1.210000000    -2.770000000
H     5.398000000    -1.195000000    -4.106000000
O     8.471000000    -4.590000000    -1.316000000
H     8.092000000    -3.921000000    -1.886000000
H     9.264000000    -4.872000000    -1.772000000
O     7.904000000     1.945000000    -0.984000000
H     7.446000000     1.678000000    -1.781000000
H     8.197000000     1.124000000    -0.589000000
O     5.631000000    -6.047000000     0.382000000
H     5.079000000    -6.237000000     1.141000000
H     5.584000000    -6.840000000    -0.153000000
