215
-1457.58581
C     1.267000000    -2.368000000     3.832000000
H     0.976000000    -3.213000000     3.213000000
C     0.534000000    -1.265000000     4.157000000
C     1.066000000    -0.282000000     5.007000000
H     0.494000000     0.581000000     5.338000000
C    -0.955000000    -1.266000000     3.695000000
O    -1.642000000    -2.519000000     3.748000000
H    -1.051000000    -0.900000000     2.662000000
O    -1.704000000    -0.406000000     4.518000000
C    -2.442000000     0.544000000     3.823000000
C    -1.841000000     1.743000000     3.596000000
H    -0.880000000     1.916000000     4.074000000
C    -2.449000000     2.698000000     2.716000000
O    -1.922000000     3.928000000     2.570000000
C    -3.673000000     2.346000000     2.140000000
C    -4.347000000     3.273000000     1.162000000
H    -5.397000000     2.985000000     1.085000000
C    -3.683000000     3.195000000    -0.210000000
C    -4.285000000     2.324000000    -1.130000000
H    -5.174000000     1.735000000    -0.920000000
H    -4.238000000     4.325000000     1.437000000
C    -4.237000000     1.153000000     2.405000000
H    -5.164000000     0.835000000     1.934000000
C    -3.608000000     0.179000000     3.144000000
C    -4.262000000    -1.194000000     3.265000000
H    -5.327000000    -1.109000000     3.041000000
H    -4.170000000    -1.623000000     4.265000000
C    -3.629000000    -2.161000000     2.337000000
C    -4.315000000    -2.428000000     1.175000000
H    -5.236000000    -1.895000000     0.952000000
C    -2.447000000    -2.812000000     2.625000000
C    -1.925000000    -3.711000000     1.678000000
H    -1.002000000    -4.179000000     2.013000000
C    -2.601000000    -3.955000000     0.488000000
O    -1.840000000    -4.658000000    -0.366000000
C    -1.214000000    -3.999000000    -1.482000000
C     0.230000000    -4.616000000    -1.676000000
C     0.905000000    -4.606000000    -2.922000000
H     0.511000000    -4.055000000    -3.772000000
C     0.929000000    -5.177000000    -0.618000000
H     0.493000000    -5.134000000     0.376000000
O    -1.962000000    -4.020000000    -2.726000000
H    -0.968000000    -2.973000000    -1.174000000
C    -3.785000000    -3.273000000     0.163000000
C    -4.346000000    -3.491000000    -1.215000000
H    -5.408000000    -3.251000000    -1.300000000
H    -4.258000000    -4.553000000    -1.454000000
C    -3.769000000    -2.552000000    -2.290000000
C    -4.263000000    -1.192000000    -2.516000000
H    -5.119000000    -0.894000000    -1.915000000
C    -2.604000000    -2.887000000    -2.994000000
C    -2.025000000    -1.958000000    -3.847000000
H    -1.224000000    -2.194000000    -4.543000000
C    -2.500000000    -0.671000000    -4.002000000
O    -1.834000000     0.276000000    -4.756000000
C    -1.075000000     1.248000000    -3.950000000
C     0.369000000     1.381000000    -4.374000000
C     0.987000000     0.347000000    -5.073000000
H     0.342000000    -0.440000000    -5.455000000
C     1.182000000     2.383000000    -3.847000000
H     0.745000000     3.020000000    -3.082000000
O    -1.753000000     2.543000000    -3.874000000
H    -0.990000000     0.870000000    -2.921000000
C    -3.685000000    -0.287000000    -3.350000000
C    -4.249000000     1.166000000    -3.453000000
H    -5.313000000     1.105000000    -3.214000000
H    -4.257000000     1.580000000    -4.464000000
C    -3.619000000     2.123000000    -2.430000000
C    -2.438000000     2.719000000    -2.704000000
C    -1.874000000     3.504000000    -1.785000000
H    -0.978000000     4.043000000    -2.083000000
C    -2.492000000     3.803000000    -0.557000000
O    -1.823000000     4.593000000     0.302000000
C    -1.074000000     4.032000000     1.429000000
H    -0.694000000     3.055000000     1.093000000
C     0.181000000     4.809000000     1.761000000
C     0.898000000     4.665000000     2.966000000
H     0.579000000     3.976000000     3.744000000
C     0.807000000     5.528000000     0.758000000
H     0.386000000     5.468000000    -0.243000000
C     2.013000000     6.191000000     0.932000000
O     2.562000000     6.749000000    -0.205000000
C     2.656000000     6.185000000     2.172000000
H     3.674000000     6.557000000     2.258000000
C     2.132000000     5.310000000     3.184000000
O     2.811000000     5.257000000     4.396000000
C     2.541000000     4.290000000     5.381000000
C     2.860000000     2.943000000     5.254000000
H     3.389000000     2.666000000     4.346000000
C     1.981000000     4.781000000     6.526000000
H     1.703000000     5.826000000     6.640000000
C     1.678000000     3.907000000     7.560000000
H     1.213000000     4.222000000     8.490000000
C     2.025000000     2.527000000     7.358000000
H     1.796000000     1.841000000     8.170000000
C     2.692000000     2.034000000     6.278000000
O     2.970000000     0.666000000     6.137000000
C     2.433000000    -0.316000000     5.393000000
C     3.143000000    -1.438000000     5.021000000
H     4.171000000    -1.419000000     5.376000000
C     2.619000000    -2.447000000     4.277000000
O     3.469000000    -3.547000000     4.062000000
C     3.136000000    -4.753000000     3.528000000
C     3.024000000    -4.834000000     2.151000000
H     3.318000000    -3.987000000     1.536000000
C     2.875000000    -5.816000000     4.330000000
H     3.029000000    -5.635000000     5.391000000
C     2.524000000    -7.044000000     3.819000000
H     2.401000000    -7.835000000     4.554000000
C     2.432000000    -7.198000000     2.437000000
H     2.221000000    -8.134000000     1.928000000
C     2.746000000    -6.137000000     1.608000000
O     2.821000000    -6.410000000     0.224000000
C     2.190000000    -5.780000000    -0.783000000
C     2.796000000    -5.701000000    -2.044000000
H     3.848000000    -5.954000000    -2.154000000
C     2.160000000    -5.084000000    -3.098000000
O     2.780000000    -5.073000000    -4.355000000
C     2.440000000    -4.178000000    -5.324000000
C     2.856000000    -2.844000000    -5.206000000
H     3.496000000    -2.568000000    -4.372000000
C     1.641000000    -4.556000000    -6.412000000
H     1.338000000    -5.599000000    -6.443000000
C     1.292000000    -3.626000000    -7.407000000
H     0.750000000    -3.942000000    -8.295000000
C     1.770000000    -2.256000000    -7.300000000
H     1.448000000    -1.564000000    -8.075000000
C     2.517000000    -1.869000000    -6.180000000
O     2.975000000    -0.623000000    -6.020000000
C     2.342000000     0.398000000    -5.343000000
C     3.137000000     1.358000000    -4.799000000
H     4.185000000     1.071000000    -4.823000000
C     2.574000000     2.361000000    -4.065000000
O     3.384000000     3.327000000    -3.512000000
C     2.962000000     4.573000000    -3.193000000
C     2.502000000     5.409000000    -4.208000000
H     2.462000000     5.070000000    -5.240000000
C     2.057000000     6.658000000    -3.875000000
H     1.682000000     7.294000000    -4.672000000
C     2.031000000     7.128000000    -2.539000000
H     1.574000000     8.088000000    -2.311000000
C     2.528000000     6.261000000    -1.521000000
C     3.033000000     5.041000000    -1.846000000
H     3.399000000     4.408000000    -1.041000000
C     2.152000000    -1.010000000    -0.778000000
H     2.873000000    -1.680000000    -1.241000000
C     0.934000000    -0.873000000    -1.361000000
H     0.604000000    -1.258000000    -2.322000000
C    -0.110000000    -0.277000000    -0.658000000
H    -1.107000000    -0.281000000    -1.015000000
C     0.196000000     0.262000000     0.596000000
H    -0.644000000     0.630000000     1.180000000
C     1.464000000     0.220000000     1.136000000
H     1.631000000     0.468000000     2.181000000
C     2.490000000    -0.394000000     0.423000000
C     3.882000000    -0.579000000     0.989000000
O     4.104000000    -0.228000000     2.122000000
O     4.687000000    -1.255000000     0.371000000
O     8.111000000     4.001000000     2.557000000
H     7.320000000     4.348000000     2.969000000
H     8.783000000     4.066000000     3.236000000
O     6.847000000    -2.827000000     4.615000000
H     7.802000000    -2.882000000     4.580000000
H     6.578000000    -2.758000000     3.699000000
O     6.302000000    -2.735000000     1.956000000
H     5.596000000    -2.272000000     1.505000000
H     7.084000000    -2.541000000     1.440000000
O     6.033000000     0.124000000     3.685000000
H     5.213000000     0.021000000     3.202000000
H     6.400000000    -0.759000000     3.723000000
O     6.705000000    -5.550000000     1.655000000
H     6.682000000    -5.842000000     2.566000000
H     6.625000000    -4.597000000     1.707000000
O     9.454000000    -0.656000000    -1.791000000
H     8.861000000    -0.269000000    -2.435000000
H    10.181000000    -0.999000000    -2.311000000
O     6.077000000     2.171000000    -2.388000000
H     6.365000000     2.654000000    -1.614000000
H     5.347000000     2.685000000    -2.733000000
O     7.171000000    -3.827000000    -2.425000000
H     6.566000000    -3.092000000    -2.322000000
H     7.998000000    -3.508000000    -2.063000000
O     6.881000000     0.585000000     0.984000000
H     6.862000000    -0.215000000     0.459000000
H     6.399000000     0.361000000     1.780000000
O     9.114000000     2.038000000    -0.970000000
H     9.042000000     1.842000000    -1.904000000
H     8.950000000     1.201000000    -0.536000000
O     7.314000000    -6.250000000    -0.960000000
H     7.054000000    -6.075000000    -0.055000000
H     6.990000000    -5.495000000    -1.452000000
O     9.338000000     1.214000000     3.255000000
H     9.371000000     2.022000000     3.766000000
H     8.622000000     1.352000000     2.635000000
O     6.511000000    -1.123000000     6.711000000
H     6.728000000    -1.795000000     6.065000000
H     6.476000000    -0.309000000     6.208000000
O     5.397000000     4.767000000     3.234000000
H     4.998000000     3.997000000     2.828000000
H     4.727000000     5.098000000     3.831000000
O     6.462000000     1.739000000     5.796000000
H     7.279000000     2.223000000     5.676000000
H     6.281000000     1.356000000     4.938000000
O     5.900000000    -1.592000000    -1.678000000
H     5.209000000    -1.106000000    -2.127000000
H     5.602000000    -1.648000000    -0.770000000
O     8.293000000    -2.101000000     0.341000000
H     8.240000000    -1.726000000    -0.538000000
H     9.228000000    -2.097000000     0.547000000
O     7.918000000     0.618000000    -3.659000000
H     8.052000000     0.881000000    -4.569000000
H     7.004000000     0.836000000    -3.478000000
O     4.534000000     2.566000000     1.756000000
H     5.186000000     2.304000000     1.107000000
H     4.239000000     1.742000000     2.145000000
