215
-1454.05823
C     0.628000000    -2.052000000     4.894000000
H     0.292000000    -2.998000000     4.477000000
C    -0.115000000    -0.861000000     4.722000000
C     0.481000000     0.282000000     5.193000000
H     0.009000000     1.221000000     4.914000000
C    -1.395000000    -0.726000000     3.915000000
O    -2.144000000    -1.990000000     3.916000000
H    -0.916000000    -0.550000000     2.940000000
O    -2.327000000     0.296000000     4.357000000
C    -2.977000000     1.018000000     3.376000000
C    -2.445000000     2.255000000     3.044000000
H    -1.616000000     2.770000000     3.523000000
C    -3.113000000     3.005000000     2.042000000
O    -2.529000000     4.234000000     1.727000000
C    -4.166000000     2.521000000     1.252000000
C    -4.689000000     3.192000000     0.028000000
H    -5.724000000     3.006000000    -0.268000000
C    -3.926000000     2.935000000    -1.168000000
C    -4.309000000     1.938000000    -2.058000000
H    -5.176000000     1.316000000    -1.852000000
H    -4.656000000     4.269000000     0.208000000
C    -4.678000000     1.262000000     1.633000000
H    -5.512000000     0.768000000     1.142000000
C    -4.120000000     0.528000000     2.677000000
C    -4.744000000    -0.841000000     3.069000000
H    -5.781000000    -0.847000000     2.728000000
H    -4.669000000    -1.133000000     4.119000000
C    -3.944000000    -1.897000000     2.301000000
C    -4.357000000    -2.287000000     1.035000000
H    -5.233000000    -1.869000000     0.546000000
C    -2.771000000    -2.404000000     2.802000000
C    -2.235000000    -3.534000000     2.206000000
H    -1.276000000    -3.900000000     2.563000000
C    -2.610000000    -3.923000000     0.968000000
O    -1.746000000    -4.761000000     0.321000000
C    -0.890000000    -4.146000000    -0.650000000
C     0.548000000    -4.624000000    -0.561000000
C     1.421000000    -4.708000000    -1.703000000
H     0.998000000    -4.544000000    -2.690000000
C     1.181000000    -4.969000000     0.705000000
H     0.579000000    -5.054000000     1.606000000
O    -1.379000000    -4.196000000    -2.021000000
H    -0.834000000    -3.087000000    -0.358000000
C    -3.691000000    -3.232000000     0.319000000
C    -4.024000000    -3.649000000    -1.055000000
H    -5.104000000    -3.639000000    -1.219000000
H    -3.766000000    -4.695000000    -1.236000000
C    -3.288000000    -2.816000000    -2.112000000
C    -3.934000000    -1.732000000    -2.721000000
H    -4.975000000    -1.525000000    -2.487000000
C    -2.004000000    -3.157000000    -2.559000000
C    -1.299000000    -2.357000000    -3.476000000
H    -0.240000000    -2.539000000    -3.642000000
C    -1.891000000    -1.179000000    -3.854000000
O    -1.145000000    -0.354000000    -4.552000000
C    -0.644000000     0.769000000    -3.829000000
C     0.866000000     0.897000000    -4.057000000
C     1.646000000    -0.211000000    -4.335000000
H     1.224000000    -1.210000000    -4.407000000
C     1.558000000     2.126000000    -4.017000000
H     1.012000000     3.011000000    -3.701000000
O    -1.389000000     1.955000000    -4.212000000
H    -0.880000000     0.678000000    -2.758000000
C    -3.209000000    -0.885000000    -3.572000000
C    -3.832000000     0.439000000    -4.077000000
H    -4.905000000     0.286000000    -4.209000000
H    -3.369000000     0.655000000    -5.042000000
C    -3.491000000     1.645000000    -3.176000000
C    -2.306000000     2.369000000    -3.311000000
C    -1.924000000     3.355000000    -2.449000000
H    -1.014000000     3.946000000    -2.514000000
C    -2.804000000     3.657000000    -1.423000000
O    -2.428000000     4.537000000    -0.512000000
C    -1.610000000     4.136000000     0.611000000
H    -1.288000000     3.093000000     0.473000000
C    -0.309000000     4.846000000     0.747000000
C     0.568000000     4.465000000     1.762000000
H     0.160000000     3.845000000     2.556000000
C     0.172000000     5.675000000    -0.238000000
H    -0.401000000     5.951000000    -1.120000000
C     1.519000000     6.011000000    -0.391000000
O     1.992000000     6.799000000    -1.427000000
C     2.386000000     5.684000000     0.710000000
H     3.414000000     6.037000000     0.732000000
C     1.893000000     4.931000000     1.770000000
O     2.816000000     4.459000000     2.697000000
C     2.373000000     4.260000000     3.969000000
C     2.572000000     2.983000000     4.565000000
H     3.115000000     2.183000000     4.068000000
C     1.664000000     5.215000000     4.635000000
H     1.453000000     6.186000000     4.195000000
C     1.179000000     4.977000000     5.925000000
H     0.673000000     5.740000000     6.510000000
C     1.395000000     3.686000000     6.550000000
H     1.001000000     3.469000000     7.540000000
C     2.109000000     2.741000000     5.863000000
O     2.265000000     1.464000000     6.353000000
C     1.620000000     0.255000000     5.971000000
C     2.210000000    -0.975000000     6.275000000
H     3.108000000    -1.003000000     6.887000000
C     1.732000000    -2.108000000     5.731000000
O     2.354000000    -3.353000000     6.012000000
C     2.211000000    -4.486000000     5.207000000
C     2.719000000    -4.474000000     3.875000000
H     3.125000000    -3.579000000     3.410000000
C     1.794000000    -5.681000000     5.751000000
H     1.545000000    -5.633000000     6.808000000
C     1.818000000    -6.836000000     5.089000000
H     1.456000000    -7.764000000     5.523000000
C     2.252000000    -6.800000000     3.785000000
H     2.238000000    -7.686000000     3.155000000
C     2.570000000    -5.635000000     3.134000000
O     3.172000000    -5.748000000     1.873000000
C     2.515000000    -5.352000000     0.726000000
C     3.253000000    -5.537000000    -0.437000000
H     4.287000000    -5.873000000    -0.403000000
C     2.722000000    -5.207000000    -1.688000000
O     3.424000000    -5.422000000    -2.792000000
C     3.528000000    -4.601000000    -3.943000000
C     3.417000000    -3.192000000    -3.771000000
H     3.354000000    -2.598000000    -2.863000000
C     3.597000000    -5.270000000    -5.149000000
H     3.618000000    -6.357000000    -5.163000000
C     3.677000000    -4.530000000    -6.308000000
H     4.037000000    -5.002000000    -7.218000000
C     3.692000000    -3.151000000    -6.275000000
H     3.838000000    -2.567000000    -7.180000000
C     3.584000000    -2.491000000    -5.051000000
O     3.713000000    -1.151000000    -5.082000000
C     2.987000000    -0.103000000    -4.738000000
C     3.614000000     1.107000000    -4.815000000
H     4.643000000     1.304000000    -5.104000000
C     2.915000000     2.228000000    -4.351000000
O     3.491000000     3.526000000    -4.624000000
C     2.858000000     4.672000000    -4.342000000
C     2.542000000     5.543000000    -5.393000000
H     2.594000000     5.232000000    -6.434000000
C     2.054000000     6.812000000    -5.150000000
H     1.853000000     7.417000000    -6.030000000
C     1.865000000     7.227000000    -3.809000000
H     1.520000000     8.220000000    -3.534000000
C     2.205000000     6.361000000    -2.732000000
C     2.686000000     5.078000000    -3.032000000
H     2.952000000     4.326000000    -2.294000000
C     2.423000000    -1.057000000    -0.235000000
H     3.079000000    -1.684000000    -0.834000000
C     1.051000000    -0.986000000    -0.528000000
H     0.622000000    -1.521000000    -1.371000000
C     0.177000000    -0.322000000     0.281000000
H    -0.963000000    -0.480000000     0.222000000
C     0.649000000     0.439000000     1.302000000
H    -0.082000000     1.052000000     1.824000000
C     2.052000000     0.397000000     1.564000000
H     2.379000000     0.857000000     2.493000000
C     2.944000000    -0.359000000     0.843000000
C     4.296000000    -0.500000000     1.284000000
O     4.756000000     0.345000000     2.058000000
O     5.009000000    -1.395000000     0.901000000
O    10.272000000    -2.762000000     1.992000000
H     9.867000000    -1.965000000     2.333000000
H    10.022000000    -3.444000000     2.616000000
O     7.006000000     5.065000000     3.801000000
H     7.435000000     4.492000000     3.164000000
H     7.715000000     5.599000000     4.158000000
O     8.380000000     3.100000000     2.635000000
H     8.912000000     3.323000000     1.871000000
H     7.628000000     2.629000000     2.274000000
O     6.395000000    -2.837000000    -1.036000000
H     5.830000000    -2.486000000    -0.347000000
H     6.399000000    -2.157000000    -1.710000000
O     6.090000000     0.552000000     4.289000000
H     5.608000000     0.484000000     3.465000000
H     5.557000000     0.069000000     4.920000000
O     5.696000000     4.835000000    -0.274000000
H     6.407000000     4.476000000    -0.805000000
H     5.478000000     4.133000000     0.339000000
O     6.614000000     2.164000000    -0.454000000
H     7.116000000     1.352000000    -0.380000000
H     6.024000000     2.151000000     0.300000000
O     6.562000000    -2.948000000     2.481000000
H     7.249000000    -2.312000000     2.679000000
H     5.831000000    -2.419000000     2.162000000
O     7.314000000    -0.279000000     0.625000000
H     6.468000000    -0.726000000     0.620000000
H     7.658000000    -0.426000000     1.506000000
O     6.151000000    -5.812000000     1.566000000
H     6.444000000    -5.004000000     1.986000000
H     5.201000000    -5.721000000     1.505000000
O     8.230000000    -0.576000000     3.350000000
H     9.017000000    -0.276000000     3.805000000
H     7.518000000    -0.071000000     3.744000000
O     5.823000000    -2.002000000     5.693000000
H     6.140000000    -2.423000000     4.894000000
H     5.369000000    -2.698000000     6.167000000
O     6.396000000     2.960000000     5.397000000
H     6.286000000     2.110000000     4.972000000
H     6.699000000     3.540000000     4.698000000
O     7.126000000    -5.716000000    -1.481000000
H     7.015000000    -4.771000000    -1.383000000
H     7.901000000    -5.922000000    -0.959000000
O     6.620000000    -0.826000000    -2.977000000
H     5.856000000    -0.541000000    -3.479000000
H     7.198000000    -0.063000000    -2.967000000
O     7.913000000    -0.653000000     7.252000000
H     8.533000000     0.001000000     6.931000000
H     7.446000000    -0.945000000     6.469000000
O     9.537000000    -2.856000000    -0.749000000
H     8.650000000    -2.505000000    -0.826000000
H     9.732000000    -2.811000000     0.187000000
O     7.042000000     1.963000000    -3.329000000
H     7.494000000     2.797000000    -3.203000000
H     6.385000000     1.939000000    -2.633000000
O     4.922000000     2.965000000     1.765000000
H     4.238000000     3.466000000     2.208000000
H     4.770000000     2.059000000     2.036000000
