215
-1445.96858
C     0.857000000    -1.109000000     4.872000000
H     0.412000000    -2.074000000     4.643000000
C     0.121000000     0.020000000     4.646000000
C     0.699000000     1.272000000     4.972000000
H     0.210000000     2.230000000     4.817000000
C    -1.161000000    -0.087000000     3.925000000
O    -1.748000000    -1.409000000     4.178000000
H    -1.035000000     0.117000000     2.852000000
O    -2.098000000     1.016000000     4.349000000
C    -2.788000000     1.605000000     3.339000000
C    -2.342000000     2.844000000     2.869000000
H    -1.419000000     3.264000000     3.261000000
C    -3.030000000     3.428000000     1.855000000
O    -2.431000000     4.468000000     1.278000000
C    -4.125000000     2.781000000     1.187000000
C    -4.697000000     3.366000000    -0.173000000
H    -5.677000000     2.910000000    -0.327000000
C    -3.847000000     2.995000000    -1.454000000
C    -4.342000000     1.887000000    -2.172000000
H    -5.251000000     1.372000000    -1.873000000
H    -4.726000000     4.457000000    -0.156000000
C    -4.596000000     1.597000000     1.728000000
H    -5.356000000     1.000000000     1.230000000
C    -3.907000000     0.961000000     2.767000000
C    -4.324000000    -0.379000000     3.272000000
H    -5.372000000    -0.490000000     2.984000000
H    -4.257000000    -0.408000000     4.361000000
C    -3.608000000    -1.535000000     2.592000000
C    -4.099000000    -2.143000000     1.427000000
H    -4.934000000    -1.708000000     0.882000000
C    -2.387000000    -2.102000000     3.149000000
C    -1.776000000    -3.227000000     2.497000000
H    -0.779000000    -3.512000000     2.823000000
C    -2.387000000    -3.843000000     1.404000000
O    -1.649000000    -4.777000000     0.735000000
C    -0.848000000    -4.225000000    -0.326000000
C     0.683000000    -4.651000000    -0.298000000
C     1.542000000    -4.481000000    -1.371000000
H     1.084000000    -4.104000000    -2.282000000
C     1.273000000    -5.059000000     0.911000000
H     0.619000000    -5.233000000     1.762000000
O    -1.430000000    -4.496000000    -1.625000000
H    -0.886000000    -3.160000000    -0.055000000
C    -3.539000000    -3.287000000     0.854000000
C    -4.038000000    -3.819000000    -0.457000000
H    -5.124000000    -3.801000000    -0.573000000
H    -3.706000000    -4.859000000    -0.494000000
C    -3.455000000    -3.067000000    -1.624000000
C    -4.043000000    -1.864000000    -2.118000000
H    -4.967000000    -1.591000000    -1.616000000
C    -2.178000000    -3.454000000    -2.165000000
C    -1.600000000    -2.789000000    -3.216000000
H    -0.760000000    -3.277000000    -3.704000000
C    -2.219000000    -1.656000000    -3.787000000
O    -1.677000000    -0.956000000    -4.809000000
C    -0.899000000     0.175000000    -4.349000000
C     0.443000000     0.165000000    -5.030000000
C     1.123000000    -0.977000000    -5.346000000
H     0.534000000    -1.875000000    -5.178000000
C     1.102000000     1.390000000    -5.293000000
H     0.521000000     2.267000000    -5.018000000
O    -1.674000000     1.409000000    -4.583000000
H    -0.636000000     0.051000000    -3.288000000
C    -3.456000000    -1.245000000    -3.222000000
C    -4.184000000    -0.017000000    -3.783000000
H    -5.259000000    -0.131000000    -3.626000000
H    -4.115000000    -0.035000000    -4.873000000
C    -3.650000000     1.316000000    -3.156000000
C    -2.436000000     1.933000000    -3.607000000
C    -2.031000000     3.092000000    -2.960000000
H    -1.066000000     3.508000000    -3.237000000
C    -2.641000000     3.563000000    -1.791000000
O    -2.010000000     4.466000000    -0.994000000
C    -1.420000000     4.202000000     0.281000000
H    -1.367000000     3.112000000     0.144000000
C    -0.007000000     4.650000000     0.463000000
C     0.429000000     5.284000000     1.650000000
H    -0.270000000     5.394000000     2.475000000
C     0.931000000     4.266000000    -0.486000000
H     0.770000000     3.707000000    -1.404000000
C     2.246000000     4.627000000    -0.358000000
O     3.138000000     4.546000000    -1.368000000
C     2.653000000     5.287000000     0.805000000
H     3.682000000     5.626000000     0.894000000
C     1.743000000     5.533000000     1.870000000
O     2.232000000     6.148000000     3.040000000
C     2.052000000     5.501000000     4.245000000
C     2.475000000     4.257000000     4.500000000
H     2.992000000     3.765000000     3.680000000
C     1.334000000     6.242000000     5.159000000
H     1.116000000     7.305000000     5.090000000
C     1.246000000     5.626000000     6.465000000
H     0.655000000     6.193000000     7.181000000
C     1.535000000     4.348000000     6.764000000
H     1.386000000     3.880000000     7.733000000
C     2.105000000     3.659000000     5.698000000
O     2.558000000     2.417000000     5.955000000
C     1.960000000     1.233000000     5.559000000
C     2.744000000     0.128000000     5.642000000
H     3.754000000     0.145000000     6.044000000
C     2.187000000    -1.080000000     5.290000000
O     2.986000000    -2.225000000     5.194000000
C     2.594000000    -3.519000000     4.933000000
C     2.808000000    -4.048000000     3.670000000
H     3.226000000    -3.422000000     2.887000000
C     2.178000000    -4.389000000     5.977000000
H     2.070000000    -4.030000000     6.997000000
C     1.965000000    -5.739000000     5.705000000
H     1.646000000    -6.357000000     6.540000000
C     2.270000000    -6.294000000     4.466000000
H     2.035000000    -7.352000000     4.392000000
C     2.652000000    -5.456000000     3.415000000
O     3.004000000    -5.979000000     2.190000000
C     2.607000000    -5.380000000     1.035000000
C     3.473000000    -5.239000000    -0.083000000
H     4.545000000    -5.415000000    -0.054000000
C     2.916000000    -4.749000000    -1.281000000
O     3.806000000    -4.445000000    -2.327000000
C     3.348000000    -4.455000000    -3.620000000
C     3.287000000    -3.247000000    -4.343000000
H     3.555000000    -2.314000000    -3.852000000
C     3.088000000    -5.675000000    -4.336000000
H     3.014000000    -6.578000000    -3.737000000
C     2.736000000    -5.651000000    -5.672000000
H     2.657000000    -6.549000000    -6.280000000
C     2.747000000    -4.447000000    -6.342000000
H     2.455000000    -4.446000000    -7.389000000
C     3.091000000    -3.262000000    -5.720000000
O     3.084000000    -2.070000000    -6.387000000
C     2.466000000    -0.961000000    -5.850000000
C     3.047000000     0.290000000    -6.048000000
H     4.085000000     0.413000000    -6.345000000
C     2.393000000     1.469000000    -5.709000000
O     3.144000000     2.607000000    -5.774000000
C     2.835000000     3.712000000    -4.916000000
C     2.010000000     4.715000000    -5.426000000
H     1.829000000     4.649000000    -6.495000000
C     1.850000000     5.801000000    -4.575000000
H     1.328000000     6.648000000    -5.013000000
C     2.100000000     5.750000000    -3.211000000
H     1.784000000     6.588000000    -2.596000000
C     2.776000000     4.603000000    -2.701000000
C     3.242000000     3.581000000    -3.555000000
H     3.898000000     2.795000000    -3.190000000
C     2.173000000    -0.829000000    -0.298000000
H     2.762000000    -1.571000000    -0.832000000
C     0.891000000    -0.725000000    -0.768000000
H     0.563000000    -1.369000000    -1.580000000
C    -0.046000000     0.049000000    -0.091000000
H    -1.059000000     0.153000000    -0.455000000
C     0.339000000     0.846000000     0.947000000
H    -0.332000000     1.573000000     1.397000000
C     1.599000000     0.682000000     1.455000000
H     1.974000000     1.265000000     2.293000000
C     2.582000000    -0.116000000     0.810000000
C     3.938000000    -0.316000000     1.425000000
O     4.404000000     0.561000000     2.096000000
O     4.488000000    -1.354000000     1.202000000
O     9.533000000    -1.379000000     3.355000000
H     8.699000000    -1.065000000     3.007000000
H     9.355000000    -2.278000000     3.629000000
O     7.633000000     2.847000000     5.577000000
H     6.856000000     2.457000000     5.176000000
H     8.351000000     2.604000000     4.992000000
O     5.386000000     4.351000000     2.474000000
H     5.993000000     5.063000000     2.272000000
H     5.670000000     4.030000000     3.330000000
O     7.720000000     1.759000000     1.929000000
H     8.089000000     1.892000000     1.056000000
H     6.812000000     2.051000000     1.852000000
O     6.408000000    -4.378000000     4.808000000
H     5.875000000    -4.793000000     4.130000000
H     6.265000000    -4.914000000     5.587000000
O     5.555000000    -2.855000000    -0.825000000
H     5.122000000    -2.353000000    -0.134000000
H     4.846000000    -3.341000000    -1.247000000
O     5.060000000     1.907000000     4.215000000
H     4.795000000     1.377000000     3.462000000
H     4.318000000     1.854000000     4.818000000
O     9.171000000     1.413000000    -0.384000000
H     8.595000000     0.661000000    -0.523000000
H     9.727000000     1.436000000    -1.163000000
O     5.967000000     2.789000000    -1.998000000
H     6.088000000     3.721000000    -1.816000000
H     5.568000000     2.439000000    -1.201000000
O     8.059000000    -4.088000000     0.806000000
H     7.232000000    -3.873000000     1.238000000
H     8.534000000    -4.616000000     1.448000000
O     6.596000000    -1.989000000    -4.158000000
H     5.965000000    -1.320000000    -3.892000000
H     6.908000000    -1.696000000    -5.014000000
O     6.985000000    -0.908000000     2.309000000
H     7.295000000    -0.010000000     2.196000000
H     6.126000000    -0.920000000     1.886000000
O     7.483000000    -0.950000000    -1.533000000
H     6.994000000    -0.546000000    -2.250000000
H     6.939000000    -1.687000000    -1.257000000
O     5.687000000    -3.464000000     2.327000000
H     6.076000000    -3.191000000     3.158000000
H     5.140000000    -2.724000000     2.064000000
O     5.826000000    -1.715000000     6.986000000
H     5.576000000    -2.175000000     6.184000000
H     5.001000000    -1.581000000     7.452000000
O     9.598000000    -2.311000000    -0.590000000
H     9.156000000    -3.013000000    -0.113000000
H     8.892000000    -1.718000000    -0.851000000
O     6.348000000     0.786000000    -3.628000000
H     7.026000000     1.114000000    -4.219000000
H     6.223000000     1.491000000    -2.992000000
O     9.574000000     1.482000000     4.094000000
H    10.155000000     0.734000000     3.955000000
H     9.020000000     1.502000000     3.314000000
O     5.357000000     2.362000000     0.543000000
H     5.403000000     3.142000000     1.095000000
H     4.888000000     1.719000000     1.075000000
