215
-1441.23389
C     1.338000000    -2.216000000     3.141000000
H     1.047000000    -2.906000000     2.353000000
C     0.420000000    -1.622000000     3.981000000
C     0.886000000    -0.770000000     4.996000000
H     0.174000000    -0.244000000     5.628000000
C    -1.116000000    -1.680000000     3.664000000
O    -1.607000000    -3.045000000     3.485000000
H    -1.241000000    -1.221000000     2.672000000
O    -1.864000000    -0.943000000     4.592000000
C    -2.564000000     0.047000000     3.913000000
C    -2.221000000     1.372000000     3.991000000
H    -1.350000000     1.622000000     4.590000000
C    -2.736000000     2.336000000     3.212000000
O    -1.962000000     3.456000000     3.033000000
C    -3.837000000     2.057000000     2.369000000
C    -4.390000000     3.060000000     1.394000000
H    -5.456000000     2.839000000     1.308000000
C    -3.789000000     3.012000000     0.018000000
C    -4.449000000     2.307000000    -1.045000000
H    -5.429000000     1.875000000    -0.859000000
H    -4.318000000     4.050000000     1.848000000
C    -4.305000000     0.720000000     2.307000000
H    -5.100000000     0.448000000     1.618000000
C    -3.683000000    -0.272000000     3.174000000
C    -4.218000000    -1.720000000     3.280000000
H    -5.278000000    -1.753000000     3.019000000
H    -3.990000000    -2.163000000     4.252000000
C    -3.579000000    -2.652000000     2.209000000
C    -4.178000000    -2.674000000     0.936000000
H    -5.137000000    -2.196000000     0.754000000
C    -2.341000000    -3.325000000     2.365000000
C    -1.801000000    -4.143000000     1.388000000
H    -0.846000000    -4.629000000     1.571000000
C    -2.439000000    -4.182000000     0.145000000
O    -1.782000000    -4.823000000    -0.888000000
C    -0.944000000    -4.062000000    -1.803000000
C     0.391000000    -4.736000000    -2.258000000
C     0.964000000    -4.533000000    -3.571000000
H     0.403000000    -4.126000000    -4.408000000
C     1.098000000    -5.450000000    -1.358000000
H     0.619000000    -5.603000000    -0.394000000
O    -1.652000000    -3.721000000    -2.992000000
H    -0.676000000    -3.063000000    -1.429000000
C    -3.594000000    -3.462000000    -0.121000000
C    -4.223000000    -3.395000000    -1.465000000
H    -5.282000000    -3.131000000    -1.440000000
H    -4.108000000    -4.344000000    -1.994000000
C    -3.639000000    -2.379000000    -2.401000000
C    -4.280000000    -1.111000000    -2.481000000
H    -5.189000000    -0.896000000    -1.925000000
C    -2.410000000    -2.630000000    -3.119000000
C    -1.901000000    -1.587000000    -3.904000000
H    -0.899000000    -1.754000000    -4.291000000
C    -2.561000000    -0.370000000    -4.067000000
O    -1.870000000     0.632000000    -4.683000000
C    -1.134000000     1.485000000    -3.820000000
C     0.342000000     1.726000000    -4.322000000
C     1.155000000     0.675000000    -4.808000000
H     0.740000000    -0.292000000    -5.079000000
C     0.942000000     2.889000000    -3.941000000
H     0.336000000     3.663000000    -3.478000000
O    -1.875000000     2.683000000    -3.656000000
H    -0.992000000     1.077000000    -2.808000000
C    -3.724000000    -0.134000000    -3.306000000
C    -4.446000000     1.232000000    -3.343000000
H    -5.492000000     0.942000000    -3.227000000
H    -4.298000000     1.625000000    -4.351000000
C    -3.854000000     2.204000000    -2.286000000
C    -2.639000000     2.890000000    -2.533000000
C    -2.048000000     3.623000000    -1.494000000
H    -1.054000000     4.053000000    -1.586000000
C    -2.515000000     3.563000000    -0.182000000
O    -1.880000000     4.271000000     0.799000000
C    -1.175000000     3.514000000     1.799000000
H    -1.098000000     2.493000000     1.396000000
C     0.196000000     4.132000000     2.120000000
C     0.684000000     4.092000000     3.424000000
H     0.180000000     3.662000000     4.286000000
C     0.879000000     4.875000000     1.113000000
H     0.463000000     4.973000000     0.113000000
C     1.965000000     5.681000000     1.391000000
O     2.441000000     6.697000000     0.589000000
C     2.455000000     5.532000000     2.676000000
H     3.324000000     6.099000000     2.999000000
C     1.918000000     4.715000000     3.661000000
O     2.478000000     4.764000000     4.940000000
C     2.545000000     3.734000000     5.893000000
C     2.548000000     2.372000000     5.564000000
H     2.549000000     2.142000000     4.502000000
C     2.400000000     4.024000000     7.228000000
H     2.166000000     5.049000000     7.505000000
C     2.418000000     3.016000000     8.201000000
H     2.283000000     3.296000000     9.243000000
C     2.537000000     1.748000000     7.899000000
H     2.498000000     0.998000000     8.685000000
C     2.560000000     1.420000000     6.592000000
O     2.666000000     0.126000000     6.343000000
C     2.304000000    -0.619000000     5.216000000
C     3.222000000    -1.268000000     4.374000000
H     4.282000000    -1.122000000     4.563000000
C     2.721000000    -2.123000000     3.362000000
O     3.689000000    -2.819000000     2.624000000
C     3.608000000    -4.176000000     2.423000000
C     3.559000000    -4.634000000     1.069000000
H     3.687000000    -3.880000000     0.296000000
C     3.428000000    -5.065000000     3.477000000
H     3.433000000    -4.783000000     4.527000000
C     3.289000000    -6.413000000     3.215000000
H     3.226000000    -7.107000000     4.049000000
C     3.141000000    -6.850000000     1.911000000
H     2.943000000    -7.905000000     1.741000000
C     3.196000000    -5.956000000     0.790000000
O     3.078000000    -6.394000000    -0.480000000
C     2.448000000    -5.717000000    -1.470000000
C     3.028000000    -5.551000000    -2.720000000
H     4.036000000    -5.913000000    -2.905000000
C     2.313000000    -5.043000000    -3.804000000
O     2.872000000    -4.825000000    -5.084000000
C     2.580000000    -3.704000000    -5.769000000
C     3.192000000    -2.507000000    -5.436000000
H     3.816000000    -2.480000000    -4.547000000
C     1.720000000    -3.762000000    -6.793000000
H     1.299000000    -4.734000000    -7.036000000
C     1.359000000    -2.628000000    -7.492000000
H     0.571000000    -2.630000000    -8.241000000
C     1.902000000    -1.418000000    -7.107000000
H     1.426000000    -0.560000000    -7.575000000
C     2.836000000    -1.342000000    -6.108000000
O     3.256000000    -0.097000000    -5.652000000
C     2.555000000     0.843000000    -4.956000000
C     3.179000000     2.004000000    -4.576000000
H     4.264000000     2.067000000    -4.554000000
C     2.319000000     2.952000000    -3.943000000
O     2.967000000     4.144000000    -3.548000000
C     2.314000000     5.117000000    -2.855000000
C     1.446000000     6.055000000    -3.565000000
H     1.023000000     5.777000000    -4.527000000
C     1.013000000     7.227000000    -2.872000000
H     0.358000000     7.915000000    -3.400000000
C     1.373000000     7.405000000    -1.528000000
H     0.975000000     8.240000000    -0.957000000
C     2.161000000     6.503000000    -0.768000000
C     2.665000000     5.419000000    -1.483000000
H     3.325000000     4.704000000    -1.000000000
C     2.031000000    -0.078000000    -1.151000000
H     2.843000000    -0.206000000    -1.861000000
C     0.844000000    -0.737000000    -1.217000000
H     0.615000000    -1.398000000    -2.049000000
C    -0.057000000    -0.640000000    -0.222000000
H    -0.988000000    -1.334000000    -0.165000000
C     0.184000000     0.169000000     0.904000000
H    -0.505000000     0.187000000     1.744000000
C     1.370000000     0.908000000     0.942000000
H     1.645000000     1.487000000     1.820000000
C     2.342000000     0.805000000    -0.071000000
C     3.610000000     1.554000000     0.026000000
O     3.910000000     2.282000000     0.969000000
O     4.450000000     1.385000000    -0.778000000
O     5.331000000     7.037000000    -1.769000000
H     4.774000000     6.406000000    -1.314000000
H     5.112000000     6.927000000    -2.694000000
O     6.622000000    -0.043000000     4.926000000
H     7.458000000     0.321000000     4.636000000
H     5.965000000     0.558000000     4.574000000
O     5.225000000    -1.095000000    -1.572000000
H     4.270000000    -1.090000000    -1.498000000
H     5.496000000    -0.247000000    -1.220000000
O     5.070000000     1.404000000     3.246000000
H     4.448000000     1.642000000     2.558000000
H     5.867000000     1.162000000     2.774000000
O     7.195000000    -3.170000000    -0.188000000
H     7.038000000    -3.304000000     0.746000000
H     6.670000000    -2.401000000    -0.412000000
O     8.268000000     3.543000000    -4.363000000
H     7.469000000     3.974000000    -4.060000000
H     8.005000000     2.637000000    -4.524000000
O     8.792000000     1.270000000     3.982000000
H     8.894000000     0.828000000     3.139000000
H     8.572000000     2.173000000     3.754000000
O     7.540000000     5.125000000    -1.704000000
H     7.092000000     5.931000000    -1.448000000
H     6.838000000     4.542000000    -1.992000000
O     6.302000000     5.857000000     2.977000000
H     5.882000000     5.263000000     2.353000000
H     6.156000000     6.729000000     2.611000000
O     5.563000000     3.269000000    -2.457000000
H     4.718000000     3.678000000    -2.644000000
H     5.373000000     2.630000000    -1.770000000
O     7.867000000     3.786000000     3.341000000
H     8.782000000     4.047000000     3.446000000
H     7.410000000     4.599000000     3.125000000
O     6.458000000    -0.874000000    -4.069000000
H     5.999000000    -0.903000000    -3.229000000
H     6.281000000    -1.726000000    -4.468000000
O     5.805000000     2.961000000     5.348000000
H     6.531000000     3.273000000     4.807000000
H     5.126000000     2.717000000     4.719000000
O     7.166000000     0.985000000    -0.131000000
H     6.315000000     1.359000000    -0.360000000
H     7.803000000     1.621000000    -0.458000000
O     8.974000000     3.210000000    -0.214000000
H     8.580000000     3.904000000    -0.742000000
H     9.514000000     3.673000000     0.427000000
O     6.947000000     1.203000000    -5.691000000
H     6.735000000     0.721000000    -4.892000000
H     6.152000000     1.148000000    -6.222000000
O     6.555000000    -2.643000000     2.352000000
H     5.652000000    -2.698000000     2.039000000
H     6.515000000    -2.957000000     3.255000000
O     8.223000000    -0.579000000     1.861000000
H     7.792000000    -0.172000000     1.109000000
H     7.713000000    -1.372000000     2.029000000
O     5.543000000     4.351000000     0.575000000
H     6.255000000     4.051000000     0.010000000
H     4.977000000     3.585000000     0.675000000
