215
-1448.09477
C    -0.129000000    -1.922000000     5.308000000
H    -0.469000000    -2.806000000     4.775000000
C    -0.629000000    -0.732000000     4.999000000
C    -0.098000000     0.381000000     5.636000000
H    -0.511000000     1.343000000     5.342000000
C    -1.857000000    -0.672000000     4.039000000
O    -2.589000000    -1.924000000     3.954000000
H    -1.537000000    -0.527000000     2.997000000
O    -2.838000000     0.439000000     4.339000000
C    -3.271000000     1.302000000     3.349000000
C    -2.553000000     2.431000000     3.070000000
H    -1.734000000     2.655000000     3.749000000
C    -2.792000000     3.130000000     1.860000000
O    -1.987000000     4.158000000     1.482000000
C    -3.950000000     2.750000000     1.139000000
C    -4.335000000     3.474000000    -0.153000000
H    -5.382000000     3.213000000    -0.320000000
C    -3.592000000     3.011000000    -1.414000000
C    -3.998000000     1.947000000    -2.294000000
H    -4.789000000     1.247000000    -2.038000000
H    -4.287000000     4.556000000    -0.020000000
C    -4.659000000     1.600000000     1.414000000
H    -5.450000000     1.258000000     0.751000000
C    -4.337000000     0.875000000     2.523000000
C    -4.887000000    -0.515000000     2.693000000
H    -5.881000000    -0.489000000     2.242000000
H    -5.056000000    -0.626000000     3.766000000
C    -4.118000000    -1.691000000     2.055000000
C    -4.407000000    -2.105000000     0.768000000
H    -5.064000000    -1.480000000     0.168000000
C    -3.106000000    -2.371000000     2.767000000
C    -2.452000000    -3.456000000     2.227000000
H    -1.753000000    -4.037000000     2.823000000
C    -2.738000000    -3.861000000     0.955000000
O    -1.786000000    -4.741000000     0.364000000
C    -1.020000000    -4.135000000    -0.696000000
C     0.448000000    -4.513000000    -0.654000000
C     1.212000000    -4.680000000    -1.748000000
H     0.842000000    -4.735000000    -2.769000000
C     1.011000000    -4.395000000     0.595000000
H     0.371000000    -4.032000000     1.396000000
O    -1.514000000    -4.485000000    -2.044000000
H    -1.105000000    -3.039000000    -0.699000000
C    -3.697000000    -3.190000000     0.245000000
C    -4.177000000    -3.716000000    -1.120000000
H    -5.266000000    -3.642000000    -1.119000000
H    -3.916000000    -4.772000000    -1.212000000
C    -3.419000000    -3.012000000    -2.276000000
C    -3.905000000    -1.776000000    -2.724000000
H    -4.909000000    -1.401000000    -2.538000000
C    -2.168000000    -3.487000000    -2.725000000
C    -1.323000000    -2.665000000    -3.480000000
H    -0.309000000    -3.010000000    -3.664000000
C    -1.733000000    -1.430000000    -3.900000000
O    -0.837000000    -0.699000000    -4.685000000
C    -0.342000000     0.532000000    -4.144000000
C     1.105000000     0.745000000    -4.590000000
C     1.964000000    -0.360000000    -4.722000000
H     1.438000000    -1.302000000    -4.586000000
C     1.709000000     2.043000000    -4.613000000
H     1.134000000     2.949000000    -4.441000000
O    -1.185000000     1.568000000    -4.577000000
H    -0.385000000     0.522000000    -3.045000000
C    -3.077000000    -0.997000000    -3.557000000
C    -3.718000000     0.299000000    -4.102000000
H    -4.798000000     0.141000000    -4.063000000
H    -3.455000000     0.377000000    -5.159000000
C    -3.265000000     1.543000000    -3.375000000
C    -2.079000000     2.151000000    -3.688000000
C    -1.646000000     3.219000000    -2.891000000
H    -0.621000000     3.515000000    -3.098000000
C    -2.420000000     3.657000000    -1.802000000
O    -1.763000000     4.514000000    -0.914000000
C    -1.208000000     3.939000000     0.288000000
H    -1.232000000     2.846000000     0.163000000
C     0.229000000     4.392000000     0.561000000
C     0.904000000     4.005000000     1.749000000
H     0.454000000     3.361000000     2.500000000
C     0.905000000     5.190000000    -0.444000000
H     0.421000000     5.513000000    -1.362000000
C     2.204000000     5.554000000    -0.182000000
O     2.967000000     6.142000000    -1.147000000
C     2.845000000     5.216000000     1.054000000
H     3.887000000     5.482000000     1.211000000
C     2.222000000     4.353000000     1.946000000
O     2.977000000     3.765000000     2.940000000
C     2.436000000     3.726000000     4.203000000
C     2.365000000     2.528000000     4.946000000
H     2.465000000     1.556000000     4.468000000
C     2.191000000     4.947000000     4.812000000
H     2.366000000     5.856000000     4.242000000
C     1.679000000     5.034000000     6.066000000
H     1.315000000     5.976000000     6.469000000
C     1.432000000     3.867000000     6.779000000
H     0.948000000     3.937000000     7.749000000
C     1.820000000     2.615000000     6.276000000
O     1.533000000     1.421000000     7.054000000
C     1.030000000     0.305000000     6.523000000
C     1.540000000    -0.940000000     6.818000000
H     2.501000000    -0.984000000     7.323000000
C     0.974000000    -2.018000000     6.195000000
O     1.569000000    -3.251000000     6.464000000
C     1.865000000    -4.157000000     5.481000000
C     2.280000000    -3.784000000     4.209000000
H     2.667000000    -2.780000000     4.052000000
C     1.421000000    -5.409000000     5.752000000
H     0.977000000    -5.661000000     6.712000000
C     1.382000000    -6.365000000     4.770000000
H     0.845000000    -7.296000000     4.934000000
C     1.796000000    -6.105000000     3.472000000
H     1.784000000    -6.934000000     2.769000000
C     2.271000000    -4.737000000     3.214000000
O     2.968000000    -4.445000000     2.080000000
C     2.387000000    -4.670000000     0.831000000
C     3.122000000    -4.998000000    -0.272000000
H     4.181000000    -5.207000000    -0.137000000
C     2.599000000    -4.975000000    -1.527000000
O     3.380000000    -5.367000000    -2.595000000
C     3.604000000    -4.666000000    -3.727000000
C     3.692000000    -3.271000000    -3.623000000
H     3.501000000    -2.767000000    -2.679000000
C     3.535000000    -5.282000000    -4.968000000
H     3.457000000    -6.366000000    -5.013000000
C     3.668000000    -4.524000000    -6.173000000
H     3.610000000    -4.990000000    -7.153000000
C     3.890000000    -3.166000000    -6.055000000
H     4.077000000    -2.549000000    -6.930000000
C     3.961000000    -2.540000000    -4.765000000
O     4.277000000    -1.221000000    -4.799000000
C     3.334000000    -0.201000000    -4.888000000
C     3.845000000     1.048000000    -5.101000000
H     4.904000000     1.170000000    -5.316000000
C     3.052000000     2.167000000    -4.938000000
O     3.641000000     3.399000000    -4.979000000
C     3.038000000     4.528000000    -4.477000000
C     2.389000000     5.449000000    -5.267000000
H     2.336000000     5.312000000    -6.344000000
C     1.813000000     6.568000000    -4.691000000
H     1.286000000     7.330000000    -5.259000000
C     1.999000000     6.764000000    -3.302000000
H     1.457000000     7.623000000    -2.915000000
C     2.730000000     5.874000000    -2.493000000
C     3.230000000     4.749000000    -3.094000000
H     3.841000000     3.969000000    -2.645000000
C     2.194000000    -1.329000000     0.200000000
H     2.934000000    -2.055000000    -0.126000000
C     1.030000000    -1.115000000    -0.509000000
H     0.800000000    -1.692000000    -1.401000000
C     0.067000000    -0.194000000    -0.086000000
H    -0.883000000    -0.143000000    -0.497000000
C     0.343000000     0.518000000     1.079000000
H    -0.466000000     1.044000000     1.578000000
C     1.589000000     0.374000000     1.692000000
H     1.818000000     0.991000000     2.557000000
C     2.541000000    -0.560000000     1.297000000
C     3.912000000    -0.761000000     2.025000000
O     4.261000000     0.048000000     2.890000000
O     4.705000000    -1.618000000     1.666000000
O     9.501000000    -2.953000000     2.645000000
H     8.647000000    -2.521000000     2.620000000
H     9.503000000    -3.431000000     3.475000000
O     5.693000000     4.892000000     3.660000000
H     4.766000000     5.132000000     3.624000000
H     6.140000000     5.702000000     3.905000000
O     8.181000000     1.622000000     3.067000000
H     8.212000000     1.046000000     2.303000000
H     7.321000000     2.039000000     3.018000000
O     5.876000000    -4.580000000     6.004000000
H     5.340000000    -5.369000000     5.923000000
H     6.124000000    -4.366000000     5.104000000
O     6.569000000    -6.984000000     3.946000000
H     6.856000000    -7.305000000     3.091000000
H     6.150000000    -6.144000000     3.757000000
O     6.421000000    -1.231000000    -0.342000000
H     5.763000000    -1.057000000     0.330000000
H     6.413000000    -0.450000000    -0.895000000
O     4.974000000     0.602000000     5.251000000
H     4.757000000     0.371000000     4.348000000
H     5.210000000    -0.230000000     5.662000000
O     8.035000000     3.945000000    -0.264000000
H     8.659000000     4.336000000     0.348000000
H     7.496000000     3.370000000     0.279000000
O     3.283000000     1.419000000    -1.423000000
H     2.574000000     0.793000000    -1.571000000
H     3.209000000     1.651000000    -0.498000000
O     6.901000000    -1.581000000     3.024000000
H     6.760000000    -0.874000000     3.654000000
H     6.094000000    -1.609000000     2.511000000
O     8.431000000     0.890000000     0.280000000
H     7.684000000     1.319000000    -0.137000000
H     8.305000000    -0.042000000     0.097000000
O     5.629000000    -4.239000000     3.316000000
H     6.185000000    -3.514000000     3.031000000
H     4.829000000    -4.146000000     2.798000000
O     7.612000000     0.913000000     6.460000000
H     6.920000000     1.150000000     5.842000000
H     7.186000000     0.326000000     7.083000000
O     5.966000000    -1.838000000     6.440000000
H     6.390000000    -2.607000000     6.059000000
H     5.441000000    -2.187000000     7.161000000
O     5.855000000     3.288000000     5.971000000
H     5.352000000     2.505000000     5.748000000
H     5.695000000     3.890000000     5.244000000
O     7.003000000    -4.033000000    -1.621000000
H     7.478000000    -4.465000000    -0.912000000
H     6.825000000    -3.153000000    -1.290000000
O     6.201000000     1.325000000    -1.376000000
H     6.603000000     1.869000000    -2.052000000
H     5.259000000     1.455000000    -1.492000000
O     5.423000000     2.534000000     1.972000000
H     4.914000000     3.161000000     2.486000000
H     5.013000000     1.688000000     2.153000000
O     4.546000000     1.540000000     8.316000000
H     4.835000000     1.304000000     7.434000000
H     3.619000000     1.305000000     8.335000000
