215
-1467.05663
C    -0.129000000    -1.425000000     5.734000000
H    -0.760000000    -2.306000000     5.821000000
C    -0.558000000    -0.342000000     4.939000000
C     0.295000000     0.772000000     4.829000000
H     0.038000000     1.609000000     4.184000000
C    -1.709000000    -0.351000000     4.014000000
O    -2.396000000    -1.637000000     4.206000000
H    -1.321000000    -0.348000000     2.985000000
O    -2.548000000     0.747000000     4.296000000
C    -3.072000000     1.324000000     3.171000000
C    -2.454000000     2.518000000     2.733000000
H    -1.706000000     3.056000000     3.310000000
C    -2.816000000     3.023000000     1.485000000
O    -2.168000000     4.110000000     0.992000000
C    -3.871000000     2.512000000     0.718000000
C    -4.324000000     3.217000000    -0.522000000
H    -5.406000000     3.070000000    -0.568000000
C    -3.584000000     2.713000000    -1.748000000
C    -3.988000000     1.503000000    -2.410000000
H    -4.853000000     0.910000000    -2.125000000
H    -4.234000000     4.301000000    -0.433000000
C    -4.543000000     1.374000000     1.205000000
H    -5.458000000     1.070000000     0.702000000
C    -4.122000000     0.731000000     2.422000000
C    -4.783000000    -0.498000000     2.901000000
H    -5.827000000    -0.485000000     2.582000000
H    -4.875000000    -0.648000000     3.979000000
C    -4.032000000    -1.699000000     2.372000000
C    -4.350000000    -2.211000000     1.103000000
H    -5.217000000    -1.893000000     0.528000000
C    -2.850000000    -2.147000000     3.006000000
C    -2.140000000    -3.205000000     2.470000000
H    -1.179000000    -3.396000000     2.942000000
C    -2.556000000    -3.798000000     1.305000000
O    -1.766000000    -4.774000000     0.803000000
C    -0.818000000    -4.182000000    -0.153000000
C     0.604000000    -4.769000000     0.015000000
C     1.405000000    -5.182000000    -1.062000000
H     1.035000000    -5.143000000    -2.083000000
C     1.209000000    -4.662000000     1.290000000
H     0.641000000    -4.185000000     2.084000000
O    -1.226000000    -4.471000000    -1.545000000
H    -0.606000000    -3.118000000     0.031000000
C    -3.651000000    -3.257000000     0.590000000
C    -4.083000000    -3.838000000    -0.788000000
H    -5.151000000    -3.672000000    -0.939000000
H    -3.884000000    -4.888000000    -1.013000000
C    -3.182000000    -3.174000000    -1.908000000
C    -3.737000000    -2.112000000    -2.550000000
H    -4.718000000    -1.678000000    -2.369000000
C    -1.894000000    -3.565000000    -2.238000000
C    -1.206000000    -2.964000000    -3.281000000
H    -0.265000000    -3.405000000    -3.600000000
C    -1.724000000    -1.838000000    -3.812000000
O    -0.962000000    -1.108000000    -4.745000000
C    -0.466000000     0.176000000    -4.346000000
C     1.028000000     0.322000000    -4.582000000
C     1.834000000    -0.822000000    -4.750000000
H     1.320000000    -1.745000000    -5.003000000
C     1.693000000     1.617000000    -4.487000000
H     1.030000000     2.437000000    -4.223000000
O    -1.268000000     1.278000000    -4.920000000
H    -0.603000000     0.206000000    -3.255000000
C    -2.999000000    -1.408000000    -3.477000000
C    -3.669000000    -0.195000000    -4.186000000
H    -4.760000000    -0.210000000    -4.133000000
H    -3.499000000    -0.214000000    -5.265000000
C    -3.218000000     1.078000000    -3.509000000
C    -2.126000000     1.842000000    -4.000000000
C    -1.714000000     2.960000000    -3.239000000
H    -0.796000000     3.499000000    -3.454000000
C    -2.388000000     3.365000000    -2.122000000
O    -1.884000000     4.370000000    -1.291000000
C    -1.184000000     4.039000000    -0.065000000
H    -0.714000000     3.046000000    -0.129000000
C     0.053000000     4.881000000     0.102000000
C     0.652000000     5.069000000     1.329000000
H     0.096000000     4.702000000     2.189000000
C     0.685000000     5.488000000    -0.969000000
H     0.320000000     5.413000000    -1.990000000
C     1.931000000     6.062000000    -0.837000000
O     2.578000000     6.669000000    -1.913000000
C     2.471000000     6.271000000     0.414000000
H     3.439000000     6.747000000     0.544000000
C     1.929000000     5.634000000     1.495000000
O     2.533000000     5.674000000     2.761000000
C     2.021000000     5.053000000     3.774000000
C     2.467000000     3.776000000     4.179000000
H     3.231000000     3.221000000     3.640000000
C     0.964000000     5.740000000     4.494000000
H     0.687000000     6.755000000     4.221000000
C     0.407000000     5.037000000     5.582000000
H    -0.388000000     5.475000000     6.179000000
C     0.827000000     3.796000000     5.969000000
H     0.477000000     3.323000000     6.882000000
C     1.933000000     3.169000000     5.304000000
O     2.357000000     1.919000000     5.600000000
C     1.515000000     0.814000000     5.559000000
C     1.953000000    -0.322000000     6.293000000
H     2.972000000    -0.260000000     6.665000000
C     1.104000000    -1.446000000     6.402000000
O     1.712000000    -2.600000000     6.842000000
C     1.757000000    -3.681000000     6.046000000
C     2.391000000    -3.690000000     4.792000000
H     2.749000000    -2.767000000     4.344000000
C     1.103000000    -4.873000000     6.434000000
H     0.608000000    -4.977000000     7.397000000
C     1.162000000    -5.992000000     5.554000000
H     0.652000000    -6.906000000     5.847000000
C     1.974000000    -5.979000000     4.362000000
H     2.055000000    -6.777000000     3.629000000
C     2.468000000    -4.782000000     3.928000000
O     3.104000000    -4.716000000     2.709000000
C     2.571000000    -4.890000000     1.465000000
C     3.377000000    -5.179000000     0.404000000
H     4.390000000    -5.506000000     0.625000000
C     2.812000000    -5.281000000    -0.867000000
O     3.630000000    -5.570000000    -1.990000000
C     3.535000000    -4.962000000    -3.214000000
C     3.793000000    -3.635000000    -3.400000000
H     4.206000000    -2.969000000    -2.646000000
C     3.136000000    -5.767000000    -4.293000000
H     3.002000000    -6.825000000    -4.083000000
C     2.999000000    -5.210000000    -5.558000000
H     2.550000000    -5.820000000    -6.338000000
C     3.277000000    -3.864000000    -5.771000000
H     3.148000000    -3.361000000    -6.726000000
C     3.725000000    -3.139000000    -4.685000000
O     4.087000000    -1.815000000    -4.874000000
C     3.250000000    -0.773000000    -4.760000000
C     3.832000000     0.490000000    -4.693000000
H     4.911000000     0.624000000    -4.676000000
C     3.086000000     1.661000000    -4.564000000
O     3.711000000     2.863000000    -4.560000000
C     3.180000000     4.170000000    -4.450000000
C     2.983000000     4.864000000    -5.656000000
H     3.182000000     4.330000000    -6.582000000
C     2.521000000     6.186000000    -5.573000000
H     2.253000000     6.687000000    -6.500000000
C     2.409000000     6.830000000    -4.283000000
H     2.161000000     7.887000000    -4.243000000
C     2.732000000     6.129000000    -3.110000000
C     3.149000000     4.790000000    -3.258000000
H     3.377000000     4.239000000    -2.349000000
C     2.238000000    -0.738000000    -0.411000000
H     3.146000000    -1.226000000    -0.756000000
C     1.072000000    -1.117000000    -1.013000000
H     1.112000000    -1.781000000    -1.873000000
C    -0.123000000    -0.703000000    -0.507000000
H    -1.000000000    -0.975000000    -1.002000000
C    -0.165000000     0.197000000     0.573000000
H    -1.170000000     0.570000000     0.754000000
C     1.046000000     0.670000000     1.117000000
H     1.077000000     1.411000000     1.912000000
C     2.258000000     0.162000000     0.627000000
C     3.669000000     0.549000000     1.215000000
O     3.885000000     1.466000000     2.020000000
O     4.638000000    -0.247000000     0.971000000
O     7.603000000     2.615000000    -0.168000000
H     8.471000000     2.276000000    -0.387000000
H     7.770000000     3.474000000     0.218000000
O     7.138000000    -4.417000000    -0.359000000
H     6.637000000    -3.611000000    -0.483000000
H     6.789000000    -5.020000000    -1.015000000
O     6.391000000     6.171000000    -1.913000000
H     6.197000000     5.917000000    -1.011000000
H     6.570000000     5.344000000    -2.361000000
O     5.579000000    -2.258000000    -0.387000000
H     5.211000000    -1.599000000     0.202000000
H     5.887000000    -1.758000000    -1.143000000
O     3.918000000     3.369000000     0.202000000
H     3.236000000     4.002000000     0.424000000
H     3.979000000     2.802000000     0.971000000
O     6.092000000     6.009000000     5.204000000
H     6.647000000     6.544000000     4.637000000
H     6.005000000     5.178000000     4.738000000
O    10.067000000     1.699000000     2.380000000
H    10.146000000     1.391000000     1.477000000
H     9.135000000     1.618000000     2.580000000
O     5.378000000    -2.810000000     2.473000000
H     5.119000000    -2.120000000     1.862000000
H     5.029000000    -3.614000000     2.088000000
O     5.576000000    -3.620000000     5.289000000
H     5.270000000    -3.408000000     4.407000000
H     5.009000000    -4.336000000     5.574000000
O     6.386000000    -0.710000000    -2.580000000
H     6.088000000     0.183000000    -2.403000000
H     7.238000000    -0.598000000    -3.000000000
O     6.985000000     0.607000000     1.580000000
H     6.061000000     0.499000000     1.354000000
H     7.287000000     1.321000000     1.019000000
O     5.061000000     0.193000000     4.100000000
H     5.491000000     0.489000000     3.297000000
H     4.138000000     0.413000000     3.973000000
O     7.686000000     0.509000000     5.550000000
H     6.941000000     0.158000000     5.063000000
H     8.276000000    -0.237000000     5.655000000
O     6.131000000     3.446000000     2.992000000
H     6.759000000     3.118000000     3.635000000
H     5.604000000     2.681000000     2.760000000
O     7.825000000    -1.721000000     2.855000000
H     7.702000000    -0.924000000     2.340000000
H     6.970000000    -2.150000000     2.841000000
O     5.471000000     1.683000000    -1.716000000
H     6.048000000     2.152000000    -1.113000000
H     4.593000000     1.995000000    -1.499000000
O     6.827000000     3.701000000    -3.427000000
H     6.735000000     3.161000000    -2.642000000
H     6.527000000     3.139000000    -4.141000000
O     6.055000000     4.897000000     0.536000000
H     6.260000000     4.682000000     1.446000000
H     5.366000000     4.279000000     0.294000000
O     5.468000000     0.379000000     6.909000000
H     6.387000000     0.574000000     6.726000000
H     5.111000000     0.097000000     6.066000000
