215
-1443.00589
C     0.956000000    -1.405000000     5.201000000
H     0.596000000    -2.347000000     4.795000000
C     0.155000000    -0.225000000     5.060000000
C     0.698000000     1.010000000     5.385000000
H     0.158000000     1.944000000     5.253000000
C    -1.111000000    -0.360000000     4.371000000
O    -1.811000000    -1.605000000     4.580000000
H    -0.843000000    -0.265000000     3.308000000
O    -2.110000000     0.605000000     4.767000000
C    -2.642000000     1.305000000     3.725000000
C    -1.997000000     2.407000000     3.126000000
H    -0.992000000     2.658000000     3.458000000
C    -2.493000000     3.047000000     2.008000000
O    -1.840000000     4.102000000     1.412000000
C    -3.707000000     2.557000000     1.393000000
C    -4.445000000     3.273000000     0.205000000
H    -5.515000000     3.054000000     0.207000000
C    -3.745000000     2.928000000    -1.181000000
C    -4.350000000     1.910000000    -1.911000000
H    -5.313000000     1.489000000    -1.634000000
H    -4.406000000     4.343000000     0.418000000
C    -4.403000000     1.511000000     1.996000000
H    -5.398000000     1.182000000     1.707000000
C    -3.821000000     0.868000000     3.088000000
C    -4.416000000    -0.434000000     3.597000000
H    -5.489000000    -0.390000000     3.400000000
H    -4.256000000    -0.472000000     4.676000000
C    -3.653000000    -1.594000000     2.969000000
C    -4.185000000    -2.095000000     1.793000000
H    -4.997000000    -1.549000000     1.318000000
C    -2.545000000    -2.195000000     3.548000000
C    -2.021000000    -3.343000000     2.905000000
H    -1.125000000    -3.834000000     3.275000000
C    -2.511000000    -3.805000000     1.679000000
O    -1.605000000    -4.574000000     1.005000000
C    -0.921000000    -3.991000000    -0.171000000
C     0.440000000    -4.544000000    -0.331000000
C     1.144000000    -4.723000000    -1.548000000
H     0.578000000    -4.538000000    -2.457000000
C     1.185000000    -4.716000000     0.851000000
H     0.722000000    -4.542000000     1.819000000
O    -1.717000000    -4.244000000    -1.335000000
H    -0.838000000    -2.896000000    -0.109000000
C    -3.591000000    -3.176000000     1.135000000
C    -4.242000000    -3.497000000    -0.208000000
H    -5.270000000    -3.131000000    -0.171000000
H    -4.106000000    -4.556000000    -0.435000000
C    -3.645000000    -2.728000000    -1.381000000
C    -4.293000000    -1.647000000    -2.033000000
H    -5.198000000    -1.208000000    -1.620000000
C    -2.392000000    -3.165000000    -1.883000000
C    -1.852000000    -2.641000000    -3.036000000
H    -0.941000000    -3.066000000    -3.448000000
C    -2.462000000    -1.560000000    -3.637000000
O    -1.835000000    -0.960000000    -4.700000000
C    -1.010000000     0.157000000    -4.307000000
C     0.419000000     0.190000000    -4.878000000
C     1.063000000    -0.963000000    -5.258000000
H     0.539000000    -1.911000000    -5.161000000
C     1.149000000     1.356000000    -4.898000000
H     0.733000000     2.333000000    -4.665000000
O    -1.651000000     1.431000000    -4.420000000
H    -0.744000000     0.067000000    -3.243000000
C    -3.685000000    -1.097000000    -3.132000000
C    -4.312000000     0.163000000    -3.699000000
H    -5.394000000     0.093000000    -3.566000000
H    -4.092000000     0.219000000    -4.768000000
C    -3.735000000     1.368000000    -3.034000000
C    -2.491000000     1.926000000    -3.447000000
C    -1.909000000     2.997000000    -2.774000000
H    -0.969000000     3.447000000    -3.084000000
C    -2.536000000     3.519000000    -1.657000000
O    -1.833000000     4.509000000    -1.037000000
C    -1.089000000     3.959000000     0.108000000
H    -0.901000000     2.887000000    -0.052000000
C     0.282000000     4.615000000     0.235000000
C     1.029000000     4.907000000     1.412000000
H     0.372000000     4.860000000     2.277000000
C     0.949000000     5.041000000    -0.891000000
H     0.479000000     4.934000000    -1.865000000
C     2.280000000     5.404000000    -0.896000000
O     2.963000000     5.733000000    -2.037000000
C     2.904000000     5.716000000     0.262000000
H     3.931000000     6.071000000     0.266000000
C     2.273000000     5.458000000     1.465000000
O     2.883000000     5.582000000     2.692000000
C     2.296000000     5.172000000     3.868000000
C     2.605000000     3.936000000     4.423000000
H     3.264000000     3.288000000     3.850000000
C     1.385000000     6.007000000     4.537000000
H     1.069000000     6.957000000     4.113000000
C     0.791000000     5.585000000     5.746000000
H     0.049000000     6.228000000     6.211000000
C     1.294000000     4.369000000     6.334000000
H     1.030000000     4.101000000     7.354000000
C     2.147000000     3.535000000     5.656000000
O     2.594000000     2.360000000     6.235000000
C     2.056000000     1.149000000     5.822000000
C     2.727000000    -0.064000000     6.086000000
H     3.737000000    -0.035000000     6.487000000
C     2.207000000    -1.331000000     5.719000000
O     2.910000000    -2.467000000     6.036000000
C     2.737000000    -3.657000000     5.366000000
C     2.991000000    -3.736000000     4.005000000
H     3.138000000    -2.845000000     3.400000000
C     2.617000000    -4.815000000     6.173000000
H     2.314000000    -4.864000000     7.216000000
C     2.553000000    -6.097000000     5.482000000
H     2.197000000    -6.984000000     5.999000000
C     2.649000000    -6.127000000     4.075000000
H     2.538000000    -7.087000000     3.577000000
C     3.001000000    -4.966000000     3.328000000
O     3.305000000    -5.144000000     2.032000000
C     2.511000000    -5.130000000     0.906000000
C     3.082000000    -5.563000000    -0.304000000
H     4.093000000    -5.964000000    -0.304000000
C     2.369000000    -5.370000000    -1.550000000
O     3.094000000    -5.699000000    -2.715000000
C     2.841000000    -5.216000000    -3.998000000
C     3.154000000    -3.896000000    -4.388000000
H     3.679000000    -3.282000000    -3.661000000
C     2.071000000    -6.071000000    -4.811000000
H     1.827000000    -7.078000000    -4.483000000
C     1.579000000    -5.576000000    -6.029000000
H     1.128000000    -6.199000000    -6.798000000
C     1.838000000    -4.208000000    -6.377000000
H     1.411000000    -3.769000000    -7.275000000
C     2.665000000    -3.400000000    -5.583000000
O     3.012000000    -2.142000000    -6.054000000
C     2.396000000    -0.982000000    -5.670000000
C     3.058000000     0.204000000    -5.750000000
H     4.038000000     0.206000000    -6.221000000
C     2.462000000     1.389000000    -5.382000000
O     3.194000000     2.537000000    -5.575000000
C     2.814000000     3.826000000    -5.219000000
C     2.932000000     4.875000000    -6.121000000
H     3.280000000     4.744000000    -7.142000000
C     2.849000000     6.163000000    -5.655000000
H     3.013000000     7.007000000    -6.321000000
C     2.717000000     6.508000000    -4.323000000
H     2.737000000     7.558000000    -4.043000000
C     2.770000000     5.452000000    -3.378000000
C     2.790000000     4.182000000    -3.876000000
H     2.947000000     3.339000000    -3.208000000
C     2.613000000    -1.026000000     0.168000000
H     3.173000000    -1.900000000    -0.152000000
C     1.367000000    -0.843000000    -0.417000000
H     1.000000000    -1.537000000    -1.169000000
C     0.647000000     0.220000000     0.062000000
H    -0.359000000     0.234000000    -0.376000000
C     1.092000000     1.123000000     0.992000000
H     0.362000000     1.821000000     1.396000000
C     2.364000000     0.919000000     1.519000000
H     2.754000000     1.453000000     2.382000000
C     3.091000000    -0.226000000     1.145000000
C     4.456000000    -0.477000000     1.761000000
O     4.835000000     0.168000000     2.695000000
O     5.163000000    -1.364000000     1.359000000
O     8.412000000     0.474000000    -2.435000000
H     9.328000000     0.463000000    -2.713000000
H     8.434000000     0.166000000    -1.529000000
O     6.123000000    -6.003000000     2.316000000
H     5.216000000    -6.090000000     2.024000000
H     6.227000000    -6.680000000     2.984000000
O     5.528000000    -2.375000000    -1.041000000
H     5.582000000    -2.033000000    -0.149000000
H     4.888000000    -1.812000000    -1.476000000
O     3.800000000     2.643000000    -1.026000000
H     2.890000000     2.633000000    -0.730000000
H     4.314000000     2.554000000    -0.223000000
O     6.527000000     4.444000000     3.710000000
H     7.242000000     3.873000000     3.993000000
H     6.098000000     3.959000000     3.005000000
O     7.380000000    -2.934000000    -2.787000000
H     6.919000000    -2.860000000    -1.952000000
H     6.803000000    -2.506000000    -3.419000000
O     6.724000000    -3.119000000     2.545000000
H     6.097000000    -2.435000000     2.308000000
H     6.299000000    -3.935000000     2.281000000
O     6.386000000    -2.615000000     5.266000000
H     6.271000000    -2.536000000     4.319000000
H     5.995000000    -3.461000000     5.484000000
O     4.343000000    -0.419000000    -2.588000000
H     4.082000000     0.498000000    -2.506000000
H     4.987000000    -0.423000000    -3.296000000
O     7.234000000     0.764000000     1.269000000
H     6.569000000     0.161000000     1.601000000
H     7.905000000     0.196000000     0.890000000
O     5.913000000     0.240000000     5.114000000
H     6.040000000    -0.705000000     5.198000000
H     5.363000000     0.339000000     4.337000000
O     8.220000000     1.908000000     4.524000000
H     7.365000000     1.538000000     4.745000000
H     8.839000000     1.423000000     5.070000000
O     5.433000000     2.643000000     1.422000000
H     6.267000000     2.189000000     1.301000000
H     4.921000000     2.058000000     1.981000000
O     9.274000000    -0.777000000     0.201000000
H     9.403000000    -1.680000000    -0.090000000
H    10.150000000    -0.392000000     0.181000000
O     9.020000000    -2.314000000     3.687000000
H     8.590000000    -3.034000000     4.148000000
H     8.486000000    -2.176000000     2.905000000
O     5.930000000     2.609000000    -3.356000000
H     6.216000000     1.703000000    -3.468000000
H     5.281000000     2.571000000    -2.654000000
O     6.782000000     4.577000000    -0.174000000
H     7.600000000     4.081000000    -0.184000000
H     6.108000000     3.923000000     0.013000000
O     5.169000000     2.066000000     6.977000000
H     5.639000000     1.701000000     6.227000000
H     4.245000000     1.920000000     6.774000000
O     9.544000000    -3.582000000     0.295000000
H     8.619000000    -3.563000000     0.051000000
H     9.568000000    -4.088000000     1.107000000
