215
-1435.23503
C     0.835000000    -1.880000000     4.895000000
H     0.389000000    -2.856000000     4.721000000
C     0.059000000    -0.743000000     4.743000000
C     0.651000000     0.519000000     4.809000000
H     0.137000000     1.462000000     4.643000000
C    -1.282000000    -0.777000000     4.001000000
O    -2.136000000    -1.938000000     4.302000000
H    -0.978000000    -0.838000000     2.946000000
O    -2.137000000     0.395000000     4.255000000
C    -2.757000000     1.045000000     3.250000000
C    -2.139000000     2.197000000     2.841000000
H    -1.149000000     2.410000000     3.235000000
C    -2.709000000     2.949000000     1.744000000
O    -2.013000000     4.025000000     1.367000000
C    -3.892000000     2.545000000     1.141000000
C    -4.500000000     3.265000000    -0.096000000
H    -5.560000000     3.027000000    -0.196000000
C    -3.745000000     2.839000000    -1.338000000
C    -4.177000000     1.731000000    -2.034000000
H    -5.050000000     1.192000000    -1.676000000
H    -4.397000000     4.352000000    -0.098000000
C    -4.480000000     1.297000000     1.496000000
H    -5.417000000     0.959000000     1.059000000
C    -3.946000000     0.589000000     2.639000000
C    -4.672000000    -0.594000000     3.173000000
H    -5.749000000    -0.627000000     2.993000000
H    -4.470000000    -0.457000000     4.237000000
C    -3.956000000    -1.843000000     2.621000000
C    -4.485000000    -2.424000000     1.438000000
H    -5.331000000    -1.926000000     0.970000000
C    -2.820000000    -2.469000000     3.207000000
C    -2.169000000    -3.460000000     2.559000000
H    -1.308000000    -3.907000000     3.050000000
C    -2.493000000    -3.861000000     1.298000000
O    -1.670000000    -4.718000000     0.612000000
C    -0.900000000    -4.137000000    -0.406000000
C     0.575000000    -4.687000000    -0.394000000
C     1.497000000    -4.305000000    -1.302000000
H     1.212000000    -3.735000000    -2.182000000
C     1.039000000    -5.390000000     0.732000000
H     0.389000000    -5.623000000     1.571000000
O    -1.504000000    -4.367000000    -1.688000000
H    -0.869000000    -3.045000000    -0.276000000
C    -3.712000000    -3.368000000     0.736000000
C    -4.195000000    -3.792000000    -0.618000000
H    -5.277000000    -3.690000000    -0.726000000
H    -3.919000000    -4.826000000    -0.838000000
C    -3.487000000    -3.009000000    -1.754000000
C    -4.108000000    -1.816000000    -2.250000000
H    -5.146000000    -1.614000000    -1.999000000
C    -2.189000000    -3.264000000    -2.190000000
C    -1.508000000    -2.547000000    -3.150000000
H    -0.488000000    -2.771000000    -3.449000000
C    -2.104000000    -1.384000000    -3.668000000
O    -1.450000000    -0.653000000    -4.663000000
C    -0.798000000     0.595000000    -4.384000000
C     0.662000000     0.704000000    -4.881000000
C     1.278000000    -0.416000000    -5.322000000
H     0.724000000    -1.350000000    -5.274000000
C     1.372000000     1.903000000    -4.707000000
H     0.934000000     2.848000000    -4.395000000
O    -1.631000000     1.651000000    -4.742000000
H    -0.692000000     0.549000000    -3.290000000
C    -3.395000000    -1.043000000    -3.209000000
C    -3.930000000     0.148000000    -3.865000000
H    -5.019000000     0.231000000    -3.837000000
H    -3.618000000     0.225000000    -4.908000000
C    -3.463000000     1.367000000    -3.151000000
C    -2.358000000     2.102000000    -3.672000000
C    -1.962000000     3.243000000    -2.983000000
H    -1.075000000     3.748000000    -3.358000000
C    -2.580000000     3.562000000    -1.769000000
O    -1.874000000     4.489000000    -0.950000000
C    -1.194000000     3.965000000     0.228000000
H    -0.910000000     2.924000000     0.013000000
C     0.061000000     4.825000000     0.486000000
C     0.604000000     5.075000000     1.759000000
H     0.021000000     4.634000000     2.564000000
C     0.765000000     5.338000000    -0.640000000
H     0.471000000     5.127000000    -1.665000000
C     1.950000000     6.098000000    -0.493000000
O     2.679000000     6.522000000    -1.586000000
C     2.407000000     6.367000000     0.764000000
H     3.293000000     6.926000000     1.053000000
C     1.809000000     5.796000000     1.912000000
O     2.217000000     6.074000000     3.171000000
C     1.940000000     5.291000000     4.300000000
C     2.396000000     3.966000000     4.227000000
H     3.027000000     3.555000000     3.443000000
C     1.060000000     5.667000000     5.272000000
H     0.614000000     6.657000000     5.220000000
C     0.800000000     4.867000000     6.374000000
H     0.169000000     5.372000000     7.102000000
C     1.303000000     3.558000000     6.379000000
H     1.030000000     2.881000000     7.185000000
C     2.120000000     3.124000000     5.299000000
O     2.646000000     1.872000000     5.321000000
C     1.994000000     0.639000000     5.153000000
C     2.694000000    -0.482000000     5.351000000
H     3.769000000    -0.450000000     5.509000000
C     2.140000000    -1.724000000     5.220000000
O     3.021000000    -2.739000000     5.340000000
C     2.777000000    -3.997000000     5.072000000
C     2.964000000    -4.470000000     3.725000000
H     3.269000000    -3.744000000     2.976000000
C     2.153000000    -4.845000000     5.999000000
H     1.965000000    -4.551000000     7.028000000
C     1.927000000    -6.200000000     5.665000000
H     1.570000000    -7.000000000     6.308000000
C     2.247000000    -6.659000000     4.368000000
H     2.075000000    -7.706000000     4.131000000
C     2.636000000    -5.795000000     3.378000000
O     2.871000000    -6.221000000     2.123000000
C     2.402000000    -5.601000000     0.956000000
C     3.300000000    -5.310000000    -0.027000000
H     4.327000000    -5.665000000    -0.008000000
C     2.805000000    -4.752000000    -1.162000000
O     3.699000000    -4.427000000    -2.168000000
C     3.256000000    -4.334000000    -3.519000000
C     3.589000000    -3.115000000    -4.173000000
H     4.087000000    -2.347000000    -3.586000000
C     2.713000000    -5.364000000    -4.253000000
H     2.541000000    -6.298000000    -3.723000000
C     2.520000000    -5.173000000    -5.610000000
H     2.003000000    -5.963000000    -6.150000000
C     2.631000000    -3.896000000    -6.217000000
H     2.339000000    -3.635000000    -7.231000000
C     3.139000000    -2.830000000    -5.418000000
O     3.382000000    -1.570000000    -5.904000000
C     2.690000000    -0.419000000    -5.539000000
C     3.428000000     0.722000000    -5.267000000
H     4.510000000     0.737000000    -5.371000000
C     2.817000000     1.840000000    -4.834000000
O     3.595000000     2.891000000    -4.601000000
C     3.196000000     4.180000000    -4.367000000
C     2.660000000     4.973000000    -5.327000000
H     2.544000000     4.569000000    -6.329000000
C     2.190000000     6.230000000    -5.190000000
H     1.710000000     6.768000000    -6.003000000
C     2.204000000     6.701000000    -3.851000000
H     1.744000000     7.671000000    -3.683000000
C     2.756000000     5.978000000    -2.839000000
C     3.330000000     4.731000000    -3.083000000
H     3.666000000     4.156000000    -2.223000000
C     2.381000000    -1.154000000    -1.005000000
H     3.204000000    -1.444000000    -1.653000000
C     1.195000000    -0.710000000    -1.467000000
H     1.069000000    -0.633000000    -2.544000000
C     0.117000000    -0.439000000    -0.715000000
H    -0.769000000    -0.012000000    -1.111000000
C     0.217000000    -0.665000000     0.671000000
H    -0.691000000    -0.477000000     1.240000000
C     1.404000000    -1.164000000     1.186000000
H     1.486000000    -1.344000000     2.255000000
C     2.529000000    -1.358000000     0.393000000
C     3.858000000    -1.658000000     0.959000000
O     4.108000000    -1.518000000     2.140000000
O     4.729000000    -2.137000000     0.335000000
O     6.625000000     3.472000000     4.233000000
H     6.565000000     2.842000000     3.515000000
H     7.428000000     3.233000000     4.696000000
O     6.283000000    -6.196000000    -1.895000000
H     6.376000000    -5.257000000    -1.735000000
H     5.798000000    -6.252000000    -2.718000000
O     8.152000000     3.805000000     1.509000000
H     7.429000000     3.203000000     1.331000000
H     7.960000000     4.575000000     0.974000000
O     5.948000000    -3.931000000     5.070000000
H     6.172000000    -4.791000000     5.426000000
H     5.617000000    -3.440000000     5.822000000
O     6.276000000    -6.892000000     2.034000000
H     5.340000000    -7.059000000     1.919000000
H     6.340000000    -5.942000000     2.127000000
O     6.405000000    -3.628000000    -1.385000000
H     5.780000000    -3.069000000    -0.923000000
H     6.643000000    -3.127000000    -2.166000000
O     3.738000000     1.203000000     1.948000000
H     3.862000000     0.254000000     1.982000000
H     2.811000000     1.330000000     2.148000000
O     6.400000000     1.620000000     2.098000000
H     6.863000000     0.931000000     1.622000000
H     5.473000000     1.420000000     1.968000000
O     8.089000000    -3.616000000     0.949000000
H     7.301000000    -3.844000000     1.443000000
H     7.834000000    -3.718000000     0.032000000
O     7.262000000    -2.251000000    -3.527000000
H     7.346000000    -3.153000000    -3.838000000
H     7.033000000    -1.748000000    -4.309000000
O     6.893000000    -0.468000000     0.295000000
H     7.366000000    -0.638000000     1.109000000
H     6.196000000    -1.123000000     0.282000000
O     6.652000000     0.243000000     6.124000000
H     6.244000000     0.189000000     5.260000000
H     7.327000000     0.915000000     6.028000000
O     8.986000000    -0.711000000    -1.579000000
H     8.636000000    -0.679000000    -2.470000000
H     8.223000000    -0.574000000    -1.017000000
O     5.949000000    -4.147000000     2.211000000
H     5.881000000    -4.171000000     3.165000000
H     5.395000000    -3.411000000     1.950000000
O     8.380000000    -0.561000000     2.916000000
H     7.578000000    -1.008000000     3.187000000
H     9.056000000    -1.238000000     2.953000000
O     6.071000000    -1.339000000     3.929000000
H     5.913000000    -2.135000000     4.438000000
H     5.397000000    -1.352000000     3.250000000
O    10.317000000    -3.675000000    -0.577000000
H     9.911000000    -4.181000000    -1.281000000
H     9.581000000    -3.273000000    -0.116000000
O     6.526000000     1.693000000    -1.905000000
H     6.580000000     0.991000000    -1.256000000
H     5.846000000     2.277000000    -1.570000000
O     4.446000000     3.050000000     0.061000000
H     4.549000000     3.792000000     0.656000000
H     4.033000000     2.371000000     0.595000000
