215
-1454.94255
C     0.356000000    -1.609000000     5.223000000
H    -0.046000000    -2.532000000     4.813000000
C    -0.129000000    -0.371000000     4.851000000
C     0.573000000     0.778000000     5.235000000
H     0.242000000     1.740000000     4.852000000
C    -1.340000000    -0.244000000     3.985000000
O    -2.292000000    -1.275000000     4.273000000
H    -1.061000000    -0.265000000     2.921000000
O    -2.147000000     0.940000000     4.280000000
C    -2.674000000     1.543000000     3.122000000
C    -2.019000000     2.708000000     2.737000000
H    -1.044000000     2.886000000     3.183000000
C    -2.531000000     3.440000000     1.685000000
O    -1.821000000     4.440000000     1.133000000
C    -3.725000000     2.954000000     0.989000000
C    -4.230000000     3.553000000    -0.272000000
H    -5.271000000     3.271000000    -0.440000000
C    -3.469000000     3.037000000    -1.519000000
C    -4.064000000     2.006000000    -2.265000000
H    -5.012000000     1.578000000    -1.950000000
H    -4.177000000     4.639000000    -0.377000000
C    -4.244000000     1.788000000     1.406000000
H    -5.101000000     1.310000000     0.938000000
C    -3.849000000     1.153000000     2.542000000
C    -4.595000000    -0.051000000     3.092000000
H    -5.641000000     0.019000000     2.786000000
H    -4.589000000    -0.261000000     4.164000000
C    -3.944000000    -1.299000000     2.499000000
C    -4.413000000    -1.783000000     1.286000000
H    -5.319000000    -1.343000000     0.878000000
C    -2.902000000    -1.900000000     3.151000000
C    -2.364000000    -3.034000000     2.616000000
H    -1.508000000    -3.500000000     3.097000000
C    -2.779000000    -3.612000000     1.411000000
O    -1.977000000    -4.568000000     0.774000000
C    -1.094000000    -4.024000000    -0.286000000
C     0.291000000    -4.675000000    -0.190000000
C     0.926000000    -5.167000000    -1.259000000
H     0.545000000    -5.101000000    -2.276000000
C     0.947000000    -4.735000000     1.068000000
H     0.318000000    -4.481000000     1.918000000
O    -1.649000000    -4.291000000    -1.578000000
H    -0.900000000    -2.947000000    -0.171000000
C    -3.820000000    -2.917000000     0.690000000
C    -4.320000000    -3.470000000    -0.644000000
H    -5.397000000    -3.286000000    -0.648000000
H    -4.253000000    -4.546000000    -0.818000000
C    -3.522000000    -2.807000000    -1.818000000
C    -4.057000000    -1.641000000    -2.426000000
H    -4.960000000    -1.137000000    -2.092000000
C    -2.307000000    -3.297000000    -2.212000000
C    -1.581000000    -2.628000000    -3.218000000
H    -0.664000000    -3.103000000    -3.555000000
C    -2.073000000    -1.526000000    -3.842000000
O    -1.194000000    -0.817000000    -4.732000000
C    -0.677000000     0.368000000    -4.191000000
C     0.864000000     0.477000000    -4.459000000
C     1.651000000    -0.637000000    -4.331000000
H     1.186000000    -1.583000000    -4.068000000
C     1.513000000     1.712000000    -4.740000000
H     0.976000000     2.655000000    -4.795000000
O    -1.310000000     1.525000000    -4.693000000
H    -0.787000000     0.319000000    -3.097000000
C    -3.349000000    -1.015000000    -3.474000000
C    -3.904000000     0.256000000    -4.055000000
H    -4.984000000     0.393000000    -3.970000000
H    -3.647000000     0.368000000    -5.111000000
C    -3.341000000     1.482000000    -3.347000000
C    -2.137000000     2.126000000    -3.778000000
C    -1.570000000     3.136000000    -3.004000000
H    -0.589000000     3.557000000    -3.211000000
C    -2.274000000     3.651000000    -1.864000000
O    -1.675000000     4.665000000    -1.136000000
C    -1.010000000     4.113000000     0.022000000
H    -1.070000000     3.014000000     0.025000000
C     0.456000000     4.607000000     0.066000000
C     1.174000000     4.364000000     1.235000000
H     0.684000000     3.852000000     2.059000000
C     1.047000000     5.207000000    -0.998000000
H     0.419000000     5.606000000    -1.790000000
C     2.349000000     5.646000000    -0.918000000
O     2.961000000     6.382000000    -1.930000000
C     3.119000000     5.275000000     0.215000000
H     4.186000000     5.472000000     0.275000000
C     2.566000000     4.689000000     1.308000000
O     3.329000000     4.356000000     2.412000000
C     2.752000000     4.273000000     3.620000000
C     2.874000000     3.070000000     4.396000000
H     3.470000000     2.257000000     3.987000000
C     1.906000000     5.252000000     4.108000000
H     1.867000000     6.177000000     3.539000000
C     1.191000000     5.125000000     5.291000000
H     0.638000000     5.991000000     5.647000000
C     1.370000000     4.014000000     6.094000000
H     0.817000000     3.892000000     7.022000000
C     2.192000000     3.021000000     5.667000000
O     2.357000000     1.813000000     6.437000000
C     1.678000000     0.675000000     6.087000000
C     2.138000000    -0.641000000     6.444000000
H     2.979000000    -0.759000000     7.122000000
C     1.461000000    -1.754000000     6.102000000
O     1.857000000    -3.025000000     6.574000000
C     1.911000000    -4.183000000     5.859000000
C     2.393000000    -4.219000000     4.563000000
H     3.050000000    -3.423000000     4.223000000
C     1.216000000    -5.297000000     6.287000000
H     0.827000000    -5.284000000     7.302000000
C     0.955000000    -6.392000000     5.553000000
H     0.491000000    -7.326000000     5.860000000
C     1.545000000    -6.459000000     4.224000000
H     1.506000000    -7.371000000     3.635000000
C     2.267000000    -5.368000000     3.690000000
O     2.846000000    -5.351000000     2.461000000
C     2.184000000    -5.363000000     1.232000000
C     2.837000000    -5.863000000     0.070000000
H     3.830000000    -6.277000000     0.222000000
C     2.238000000    -5.679000000    -1.189000000
O     2.896000000    -6.113000000    -2.328000000
C     2.943000000    -5.249000000    -3.436000000
C     3.417000000    -3.956000000    -3.375000000
H     3.911000000    -3.534000000    -2.503000000
C     2.392000000    -5.729000000    -4.635000000
H     2.015000000    -6.747000000    -4.574000000
C     2.224000000    -4.857000000    -5.691000000
H     1.653000000    -5.242000000    -6.532000000
C     2.542000000    -3.535000000    -5.529000000
H     2.269000000    -2.817000000    -6.299000000
C     3.238000000    -3.081000000    -4.415000000
O     3.750000000    -1.813000000    -4.454000000
C     3.009000000    -0.672000000    -4.634000000
C     3.633000000     0.509000000    -4.981000000
H     4.705000000     0.513000000    -5.164000000
C     2.924000000     1.711000000    -4.946000000
O     3.603000000     2.858000000    -5.179000000
C     3.288000000     4.159000000    -4.816000000
C     2.973000000     5.068000000    -5.828000000
H     2.872000000     4.749000000    -6.863000000
C     2.628000000     6.354000000    -5.526000000
H     2.382000000     7.042000000    -6.331000000
C     2.561000000     6.803000000    -4.245000000
H     2.342000000     7.846000000    -4.033000000
C     2.943000000     5.954000000    -3.229000000
C     3.285000000     4.623000000    -3.500000000
H     3.700000000     4.040000000    -2.681000000
C     2.933000000    -1.473000000     0.017000000
H     3.795000000    -2.055000000    -0.301000000
C     1.814000000    -1.459000000    -0.832000000
H     1.837000000    -1.976000000    -1.788000000
C     0.663000000    -0.814000000    -0.392000000
H    -0.253000000    -0.735000000    -0.953000000
C     0.609000000    -0.072000000     0.790000000
H    -0.258000000     0.536000000     1.036000000
C     1.757000000    -0.128000000     1.636000000
H     1.705000000     0.540000000     2.491000000
C     2.980000000    -0.732000000     1.205000000
C     4.312000000    -0.620000000     1.889000000
O     4.468000000     0.389000000     2.594000000
O     5.220000000    -1.296000000     1.557000000
O     6.026000000    -0.062000000    -2.413000000
H     6.096000000     0.358000000    -3.270000000
H     6.879000000     0.087000000    -2.003000000
O     6.327000000    -5.443000000     4.417000000
H     5.904000000    -6.280000000     4.227000000
H     5.854000000    -4.808000000     3.879000000
O     6.147000000     3.429000000     3.766000000
H     6.026000000     3.440000000     2.816000000
H     5.649000000     2.667000000     4.062000000
O    10.005000000     0.453000000     3.942000000
H    10.895000000     0.256000000     3.651000000
H     9.564000000     0.781000000     3.158000000
O     8.961000000     2.562000000     2.083000000
H     8.450000000     3.370000000     2.028000000
H     9.657000000     2.761000000     2.710000000
O     5.809000000     2.417000000     1.284000000
H     5.206000000     2.666000000     0.583000000
H     5.421000000     1.630000000     1.665000000
O     7.895000000    -1.363000000     4.577000000
H     7.085000000    -0.939000000     4.294000000
H     8.587000000    -0.755000000     4.317000000
O    10.458000000    -1.857000000    -0.020000000
H     9.603000000    -2.012000000    -0.422000000
H    10.622000000    -2.641000000     0.504000000
O     6.826000000    -3.164000000     2.495000000
H     7.125000000    -2.620000000     3.223000000
H     6.262000000    -2.587000000     1.980000000
O     5.459000000     0.520000000     4.996000000
H     5.416000000    -0.379000000     5.321000000
H     4.921000000     0.515000000     4.205000000
O     6.353000000    -2.710000000    -1.125000000
H     5.961000000    -1.839000000    -1.186000000
H     6.528000000    -2.958000000    -2.033000000
O     4.403000000     1.443000000    -0.825000000
H     3.749000000     0.845000000    -0.462000000
H     4.838000000     0.936000000    -1.510000000
O     6.435000000     1.900000000     7.069000000
H     6.105000000     1.375000000     6.339000000
H     7.013000000     1.307000000     7.549000000
O     7.494000000     0.047000000     1.966000000
H     6.654000000    -0.389000000     1.825000000
H     7.331000000     0.961000000     1.735000000
O     8.294000000     0.373000000    -0.992000000
H     7.883000000     0.394000000    -0.128000000
H     9.118000000    -0.095000000    -0.854000000
O     5.156000000    -1.966000000     5.890000000
H     6.006000000    -2.383000000     6.032000000
H     4.810000000    -1.822000000     6.770000000
O     8.135000000    -4.455000000     0.391000000
H     7.687000000    -4.355000000     1.231000000
H     7.644000000    -3.895000000    -0.210000000
O     6.259000000     3.708000000    -1.392000000
H     7.027000000     3.345000000    -1.835000000
H     5.661000000     2.965000000    -1.303000000
O     5.525000000    -4.734000000     7.062000000
H     6.253000000    -5.041000000     6.521000000
H     4.897000000    -4.374000000     6.435000000
