215
-1473.95519
C     0.228000000    -1.462000000     5.186000000
H    -0.209000000    -2.441000000     5.004000000
C    -0.454000000    -0.279000000     4.934000000
C     0.106000000     0.880000000     5.490000000
H    -0.457000000     1.780000000     5.256000000
C    -1.752000000    -0.314000000     4.044000000
O    -2.368000000    -1.582000000     4.205000000
H    -1.390000000    -0.241000000     3.007000000
O    -2.536000000     0.882000000     4.262000000
C    -3.129000000     1.519000000     3.218000000
C    -2.502000000     2.693000000     2.752000000
H    -1.598000000     3.112000000     3.187000000
C    -2.829000000     3.242000000     1.517000000
O    -2.117000000     4.312000000     1.138000000
C    -3.970000000     2.722000000     0.849000000
C    -4.399000000     3.344000000    -0.458000000
H    -5.453000000     3.114000000    -0.623000000
C    -3.541000000     2.892000000    -1.600000000
C    -3.986000000     1.786000000    -2.401000000
H    -4.962000000     1.366000000    -2.169000000
H    -4.259000000     4.426000000    -0.424000000
C    -4.670000000     1.624000000     1.325000000
H    -5.519000000     1.180000000     0.811000000
C    -4.143000000     1.004000000     2.452000000
C    -4.874000000    -0.204000000     3.017000000
H    -5.908000000    -0.156000000     2.668000000
H    -4.884000000    -0.288000000     4.105000000
C    -4.182000000    -1.514000000     2.506000000
C    -4.568000000    -2.028000000     1.268000000
H    -5.487000000    -1.647000000     0.831000000
C    -2.985000000    -1.997000000     3.037000000
C    -2.238000000    -2.950000000     2.413000000
H    -1.250000000    -3.191000000     2.797000000
C    -2.721000000    -3.487000000     1.193000000
O    -1.914000000    -4.421000000     0.559000000
C    -0.929000000    -4.065000000    -0.434000000
C     0.331000000    -4.854000000    -0.172000000
C     1.147000000    -5.240000000    -1.287000000
H     0.741000000    -5.158000000    -2.292000000
C     0.826000000    -5.051000000     1.121000000
H     0.351000000    -4.623000000     2.001000000
O    -1.508000000    -4.332000000    -1.790000000
H    -0.614000000    -3.020000000    -0.300000000
C    -3.816000000    -2.949000000     0.544000000
C    -4.230000000    -3.405000000    -0.822000000
H    -5.268000000    -3.088000000    -0.942000000
H    -4.174000000    -4.495000000    -0.803000000
C    -3.481000000    -2.814000000    -2.002000000
C    -3.894000000    -1.672000000    -2.702000000
H    -4.791000000    -1.159000000    -2.366000000
C    -2.233000000    -3.360000000    -2.413000000
C    -1.465000000    -2.740000000    -3.378000000
H    -0.546000000    -3.211000000    -3.718000000
C    -1.948000000    -1.585000000    -4.011000000
O    -1.016000000    -0.842000000    -4.701000000
C    -0.413000000     0.305000000    -4.069000000
C     1.085000000     0.391000000    -4.269000000
C     1.826000000    -0.740000000    -4.037000000
H     1.312000000    -1.675000000    -3.829000000
C     1.732000000     1.566000000    -4.579000000
H     1.186000000     2.493000000    -4.735000000
O    -1.066000000     1.465000000    -4.677000000
H    -0.592000000     0.446000000    -2.993000000
C    -3.188000000    -1.056000000    -3.751000000
C    -3.698000000     0.260000000    -4.330000000
H    -4.769000000     0.173000000    -4.527000000
H    -3.251000000     0.239000000    -5.326000000
C    -3.199000000     1.471000000    -3.558000000
C    -1.963000000     2.069000000    -3.842000000
C    -1.497000000     3.116000000    -2.936000000
H    -0.536000000     3.573000000    -3.156000000
C    -2.356000000     3.545000000    -1.961000000
O    -1.912000000     4.553000000    -1.102000000
C    -1.248000000     4.047000000     0.074000000
H    -1.136000000     2.975000000    -0.147000000
C     0.180000000     4.584000000     0.260000000
C     0.991000000     4.250000000     1.385000000
H     0.553000000     3.775000000     2.260000000
C     0.796000000     5.161000000    -0.822000000
H     0.189000000     5.198000000    -1.722000000
C     2.106000000     5.586000000    -0.782000000
O     2.629000000     6.271000000    -1.881000000
C     2.916000000     5.374000000     0.360000000
H     3.950000000     5.707000000     0.387000000
C     2.326000000     4.690000000     1.460000000
O     3.108000000     4.503000000     2.600000000
C     2.533000000     4.475000000     3.837000000
C     2.446000000     3.256000000     4.562000000
H     2.770000000     2.325000000     4.103000000
C     1.986000000     5.608000000     4.378000000
H     2.123000000     6.502000000     3.775000000
C     1.446000000     5.622000000     5.598000000
H     1.085000000     6.571000000     5.987000000
C     1.268000000     4.465000000     6.369000000
H     0.884000000     4.446000000     7.386000000
C     1.821000000     3.302000000     5.845000000
O     1.801000000     2.121000000     6.634000000
C     1.278000000     0.954000000     6.166000000
C     2.078000000    -0.172000000     6.211000000
H     3.111000000    -0.105000000     6.543000000
C     1.492000000    -1.400000000     5.764000000
O     2.315000000    -2.495000000     5.827000000
C     1.976000000    -3.696000000     5.271000000
C     2.444000000    -4.136000000     4.039000000
H     3.082000000    -3.457000000     3.479000000
C     1.205000000    -4.561000000     6.021000000
H     0.834000000    -4.244000000     6.992000000
C     0.821000000    -5.802000000     5.575000000
H     0.147000000    -6.494000000     6.075000000
C     1.305000000    -6.275000000     4.382000000
H     0.926000000    -7.231000000     4.028000000
C     2.141000000    -5.434000000     3.619000000
O     2.738000000    -5.871000000     2.506000000
C     2.095000000    -5.682000000     1.248000000
C     2.872000000    -6.021000000     0.134000000
H     3.823000000    -6.547000000     0.178000000
C     2.416000000    -5.778000000    -1.162000000
O     3.169000000    -6.151000000    -2.289000000
C     3.146000000    -5.349000000    -3.418000000
C     3.653000000    -4.057000000    -3.239000000
H     3.961000000    -3.693000000    -2.262000000
C     2.540000000    -5.714000000    -4.611000000
H     2.146000000    -6.724000000    -4.697000000
C     2.561000000    -4.785000000    -5.694000000
H     2.079000000    -5.022000000    -6.638000000
C     3.078000000    -3.520000000    -5.520000000
H     2.983000000    -2.782000000    -6.313000000
C     3.600000000    -3.134000000    -4.306000000
O     4.003000000    -1.878000000    -4.091000000
C     3.213000000    -0.775000000    -4.239000000
C     3.904000000     0.408000000    -4.446000000
H     4.982000000     0.446000000    -4.583000000
C     3.130000000     1.589000000    -4.589000000
O     3.939000000     2.668000000    -4.848000000
C     3.530000000     3.925000000    -4.641000000
C     3.451000000     4.786000000    -5.733000000
H     3.633000000     4.379000000    -6.725000000
C     3.151000000     6.122000000    -5.528000000
H     3.068000000     6.839000000    -6.341000000
C     2.969000000     6.545000000    -4.213000000
H     2.867000000     7.610000000    -4.026000000
C     2.928000000     5.702000000    -3.112000000
C     3.252000000     4.360000000    -3.350000000
H     3.250000000     3.651000000    -2.526000000
C     1.777000000    -1.603000000    -0.236000000
H     2.083000000    -2.305000000    -1.008000000
C     0.713000000    -0.804000000    -0.519000000
H     0.164000000    -0.949000000    -1.446000000
C     0.269000000     0.232000000     0.334000000
H    -0.635000000     0.858000000     0.163000000
C     0.987000000     0.544000000     1.472000000
H     0.662000000     1.441000000     1.993000000
C     2.211000000    -0.159000000     1.693000000
H     2.872000000     0.257000000     2.449000000
C     2.553000000    -1.215000000     0.860000000
C     3.863000000    -1.997000000     1.095000000
O     4.703000000    -1.572000000     1.868000000
O     4.246000000    -2.759000000     0.220000000
O     7.197000000     0.090000000    -1.824000000
H     6.824000000     0.899000000    -2.173000000
H     7.553000000     0.339000000    -0.971000000
O     6.723000000     2.286000000     3.374000000
H     6.417000000     1.818000000     2.597000000
H     6.043000000     2.132000000     4.029000000
O     8.918000000     0.200000000     4.323000000
H     8.626000000    -0.463000000     3.697000000
H     8.309000000     0.929000000     4.201000000
O     5.430000000     0.861000000     1.427000000
H     4.980000000     1.132000000     0.627000000
H     5.185000000    -0.058000000     1.540000000
O     7.232000000    -1.750000000     3.065000000
H     6.545000000    -1.766000000     2.399000000
H     6.771000000    -1.920000000     3.887000000
O     7.174000000    -6.702000000     3.645000000
H     7.255000000    -7.374000000     4.322000000
H     7.380000000    -5.883000000     4.094000000
O     6.461000000    -4.123000000     1.345000000
H     6.093000000    -4.118000000     2.229000000
H     5.778000000    -3.732000000     0.800000000
O     5.069000000    -1.599000000     4.762000000
H     4.964000000    -2.549000000     4.728000000
H     4.826000000    -1.299000000     3.886000000
O     9.602000000    -3.917000000     3.160000000
H     9.486000000    -3.926000000     2.210000000
H     8.762000000    -3.607000000     3.501000000
O     3.925000000     1.254000000    -1.085000000
H     4.609000000     0.592000000    -1.183000000
H     3.171000000     0.771000000    -0.747000000
O     5.672000000    -1.114000000     7.648000000
H     6.540000000    -1.518000000     7.662000000
H     5.257000000    -1.466000000     6.860000000
O     7.732000000    -4.786000000    -1.927000000
H     7.017000000    -4.271000000    -1.552000000
H     8.060000000    -4.249000000    -2.649000000
O     5.555000000     1.244000000     5.657000000
H     5.149000000     0.381000000     5.569000000
H     5.321000000     1.530000000     6.540000000
O     6.270000000    -2.616000000    -1.478000000
H     6.703000000    -1.763000000    -1.492000000
H     5.708000000    -2.587000000    -0.704000000
O     8.020000000     0.758000000     0.640000000
H     7.218000000     0.693000000     1.157000000
H     8.607000000     1.293000000     1.174000000
O     5.381000000    -4.305000000     4.494000000
H     4.966000000    -5.105000000     4.817000000
H     6.215000000    -4.261000000     4.962000000
O     6.690000000    -7.160000000     0.976000000
H     6.516000000    -6.225000000     1.087000000
H     6.960000000    -7.458000000     1.844000000
O     8.967000000    -4.031000000     0.438000000
H     8.747000000    -4.413000000    -0.412000000
H     8.162000000    -4.108000000     0.951000000
O     6.423000000     2.641000000    -2.451000000
H     6.857000000     3.186000000    -3.107000000
H     5.502000000     2.638000000    -2.713000000
