215
-1446.56550
C     4.521000000    -1.240000000    -2.487000000
H     3.839000000    -2.061000000    -2.692000000
C     4.836000000    -0.878000000    -1.222000000
C     5.699000000     0.200000000    -0.983000000
H     6.067000000     0.594000000    -0.039000000
C     4.122000000    -1.492000000    -0.052000000
O     4.060000000    -2.932000000    -0.225000000
H     3.109000000    -1.065000000    -0.010000000
O     4.885000000    -1.280000000     1.122000000
C     4.110000000    -0.943000000     2.149000000
C     3.822000000     0.395000000     2.330000000
H     4.278000000     1.170000000     1.719000000
C     3.029000000     0.790000000     3.396000000
O     2.593000000     2.101000000     3.470000000
C     2.396000000    -0.185000000     4.151000000
C     1.432000000     0.212000000     5.251000000
H     1.479000000    -0.437000000     6.127000000
C    -0.027000000     0.304000000     4.824000000
C    -0.883000000    -0.794000000     4.788000000
H    -0.391000000    -1.692000000     5.151000000
H     1.753000000     1.180000000     5.643000000
C     2.603000000    -1.532000000     3.934000000
H     2.218000000    -2.208000000     4.694000000
C     3.441000000    -1.932000000     2.882000000
C     3.537000000    -3.413000000     2.586000000
H     3.328000000    -4.017000000     3.471000000
H     4.565000000    -3.608000000     2.273000000
C     2.567000000    -3.797000000     1.534000000
C     1.328000000    -4.457000000     1.841000000
H     1.063000000    -4.608000000     2.884000000
C     2.867000000    -3.465000000     0.187000000
C     1.920000000    -3.751000000    -0.772000000
H     2.178000000    -3.492000000    -1.796000000
C     0.763000000    -4.443000000    -0.505000000
O    -0.118000000    -4.595000000    -1.512000000
C    -1.224000000    -3.635000000    -1.577000000
C    -1.395000000    -3.084000000    -2.977000000
C    -2.643000000    -2.621000000    -3.359000000
H    -3.459000000    -2.744000000    -2.652000000
C    -0.295000000    -3.019000000    -3.880000000
H     0.737000000    -3.297000000    -3.683000000
O    -2.448000000    -4.122000000    -0.957000000
H    -0.938000000    -2.718000000    -1.041000000
C     0.429000000    -4.759000000     0.780000000
C    -0.846000000    -5.342000000     1.236000000
H    -0.725000000    -5.970000000     2.121000000
H    -1.085000000    -6.034000000     0.426000000
C    -1.864000000    -4.274000000     1.463000000
C    -2.021000000    -3.699000000     2.746000000
H    -1.443000000    -4.074000000     3.587000000
C    -2.625000000    -3.757000000     0.369000000
C    -3.505000000    -2.831000000     0.671000000
H    -4.052000000    -2.329000000    -0.122000000
C    -3.704000000    -2.261000000     1.929000000
O    -4.538000000    -1.137000000     2.013000000
C    -3.986000000     0.153000000     2.013000000
C    -4.861000000     1.077000000     1.224000000
C    -5.461000000     0.737000000    -0.024000000
H    -5.154000000    -0.243000000    -0.381000000
C    -5.029000000     2.452000000     1.587000000
H    -4.470000000     2.850000000     2.430000000
O    -3.870000000     0.692000000     3.395000000
H    -3.017000000     0.098000000     1.495000000
C    -2.978000000    -2.663000000     2.986000000
C    -3.011000000    -1.937000000     4.393000000
H    -2.638000000    -2.572000000     5.199000000
H    -4.005000000    -1.684000000     4.768000000
C    -2.128000000    -0.742000000     4.339000000
C    -2.630000000     0.530000000     3.998000000
C    -1.742000000     1.610000000     3.941000000
H    -2.085000000     2.548000000     3.511000000
C    -0.501000000     1.478000000     4.396000000
O     0.335000000     2.524000000     4.080000000
C     1.274000000     2.396000000     2.966000000
H     0.877000000     1.573000000     2.353000000
C     1.282000000     3.671000000     1.987000000
C     2.349000000     3.816000000     1.128000000
H     3.244000000     3.219000000     1.283000000
C     0.146000000     4.403000000     1.738000000
H    -0.767000000     4.228000000     2.303000000
C     0.104000000     5.275000000     0.610000000
O    -1.101000000     5.812000000     0.137000000
C     1.183000000     5.486000000    -0.177000000
H     1.146000000     6.270000000    -0.929000000
C     2.341000000     4.730000000     0.060000000
O     3.431000000     5.037000000    -0.765000000
C     4.735000000     4.562000000    -0.506000000
C     5.299000000     3.709000000    -1.475000000
H     4.706000000     3.488000000    -2.359000000
C     5.510000000     4.958000000     0.624000000
H     5.032000000     5.600000000     1.360000000
C     6.810000000     4.485000000     0.833000000
H     7.324000000     4.617000000     1.782000000
C     7.305000000     3.463000000    -0.044000000
H     8.203000000     2.948000000     0.289000000
C     6.586000000     3.158000000    -1.190000000
O     6.982000000     2.091000000    -1.999000000
C     6.269000000     0.885000000    -2.069000000
C     5.879000000     0.571000000    -3.370000000
H     6.314000000     1.095000000    -4.218000000
C     5.054000000    -0.516000000    -3.561000000
O     4.710000000    -0.757000000    -4.830000000
C     3.894000000    -1.802000000    -5.245000000
C     2.510000000    -1.669000000    -5.357000000
H     2.072000000    -0.701000000    -5.128000000
C     4.479000000    -3.096000000    -5.542000000
H     5.544000000    -3.232000000    -5.374000000
C     3.647000000    -4.142000000    -5.960000000
H     4.072000000    -5.142000000    -5.970000000
C     2.329000000    -3.942000000    -6.240000000
H     1.732000000    -4.769000000    -6.616000000
C     1.788000000    -2.676000000    -5.928000000
O     0.433000000    -2.414000000    -6.099000000
C    -0.543000000    -2.460000000    -5.124000000
C    -1.758000000    -1.914000000    -5.494000000
H    -1.869000000    -1.469000000    -6.480000000
C    -2.828000000    -1.955000000    -4.565000000
O    -4.047000000    -1.533000000    -4.946000000
C    -5.149000000    -1.392000000    -4.090000000
C    -5.346000000    -0.197000000    -3.399000000
H    -4.631000000     0.616000000    -3.501000000
C    -6.037000000    -2.413000000    -3.939000000
H    -5.892000000    -3.327000000    -4.510000000
C    -7.195000000    -2.184000000    -3.202000000
H    -7.943000000    -2.969000000    -3.130000000
C    -7.393000000    -1.007000000    -2.501000000
H    -8.201000000    -0.875000000    -1.786000000
C    -6.465000000    -0.004000000    -2.617000000
O    -6.706000000     1.194000000    -1.972000000
C    -6.135000000     1.607000000    -0.802000000
C    -6.323000000     2.918000000    -0.430000000
H    -6.751000000     3.631000000    -1.130000000
C    -5.716000000     3.365000000     0.752000000
O    -5.709000000     4.641000000     1.026000000
C    -4.553000000     5.399000000     1.255000000
C    -4.586000000     6.182000000     2.377000000
H    -5.509000000     6.374000000     2.919000000
C    -3.396000000     6.739000000     2.833000000
H    -3.422000000     7.317000000     3.753000000
C    -2.261000000     6.576000000     2.046000000
H    -1.389000000     7.072000000     2.464000000
C    -2.276000000     5.901000000     0.862000000
C    -3.396000000     5.231000000     0.499000000
H    -3.401000000     4.486000000    -0.292000000
C    -0.369000000     0.687000000    -2.879000000
H    -1.089000000     0.334000000    -3.613000000
C    -0.619000000     0.304000000    -1.542000000
H    -1.506000000    -0.285000000    -1.325000000
C     0.350000000     0.559000000    -0.555000000
H     0.281000000     0.101000000     0.401000000
C     1.565000000     1.181000000    -0.899000000
H     2.352000000     1.315000000    -0.162000000
C     1.789000000     1.649000000    -2.209000000
H     2.704000000     2.210000000    -2.377000000
C     0.814000000     1.404000000    -3.222000000
C     1.155000000     1.692000000    -4.659000000
O     2.176000000     2.303000000    -4.982000000
O     0.378000000     1.387000000    -5.491000000
O     2.035000000     4.275000000    -9.918000000
H     2.838000000     4.780000000   -10.046000000
H     1.734000000     4.521000000    -9.043000000
O     2.859000000     1.548000000    -7.510000000
H     2.589000000     1.565000000    -6.592000000
H     2.756000000     0.634000000    -7.773000000
O     0.984000000     6.726000000    -7.506000000
H     0.228000000     6.998000000    -6.986000000
H     1.127000000     5.812000000    -7.261000000
O    -2.499000000     0.180000000    -8.390000000
H    -3.302000000     0.326000000    -7.889000000
H    -2.783000000    -0.320000000    -9.156000000
O     5.829000000     5.222000000    -4.130000000
H     5.988000000     5.786000000    -3.373000000
H     4.888000000     5.046000000    -4.104000000
O     3.895000000     3.983000000    -7.284000000
H     3.565000000     3.087000000    -7.355000000
H     3.654000000     4.258000000    -6.400000000
O    -4.199000000     0.922000000    -6.307000000
H    -4.431000000     0.297000000    -5.619000000
H    -3.305000000     1.191000000    -6.094000000
O    -2.026000000     2.421000000    -5.868000000
H    -2.088000000     3.069000000    -5.166000000
H    -1.211000000     1.952000000    -5.690000000
O     0.146000000     2.180000000   -10.220000000
H     0.556000000     3.015000000    -9.993000000
H     0.341000000     1.608000000    -9.478000000
O    -1.872000000     4.048000000    -8.510000000
H    -1.955000000     3.193000000    -8.933000000
H    -2.196000000     3.907000000    -7.620000000
O     4.549000000     6.546000000    -6.839000000
H     4.359000000     6.027000000    -6.058000000
H     4.127000000     6.068000000    -7.553000000
O     0.725000000    -2.309000000    -9.777000000
H     0.537000000    -1.842000000    -8.963000000
H     1.339000000    -1.742000000   -10.243000000
O     3.265000000     4.751000000    -4.644000000
H     2.941000000     3.856000000    -4.551000000
H     2.524000000     5.302000000    -4.392000000
O     6.300000000     0.832000000    -7.217000000
H     5.380000000     0.967000000    -6.994000000
H     6.297000000     0.676000000    -8.162000000
O    -0.271000000     5.044000000    -4.378000000
H     0.112000000     5.813000000    -3.956000000
H     0.023000000     5.098000000    -5.287000000
O     0.589000000     4.005000000    -6.727000000
H     0.963000000     3.580000000    -5.955000000
H    -0.092000000     3.403000000    -7.025000000
O     4.150000000    -1.266000000    -8.930000000
H     5.100000000    -1.183000000    -9.016000000
H     4.024000000    -1.726000000    -8.100000000
O     0.156000000     0.083000000    -7.941000000
H    -0.794000000     0.140000000    -8.042000000
H     0.322000000     0.401000000    -7.054000000
O    -2.046000000     3.459000000    -2.964000000
H    -1.378000000     4.028000000    -3.345000000
H    -1.671000000     3.172000000    -2.132000000
