215
-1429.20907
C    -0.171000000    -1.824000000     5.244000000
H    -0.763000000    -2.675000000     4.916000000
C    -0.645000000    -0.560000000     4.959000000
C     0.128000000     0.516000000     5.418000000
H    -0.158000000     1.527000000     5.141000000
C    -1.833000000    -0.281000000     4.037000000
O    -2.719000000    -1.455000000     4.048000000
H    -1.472000000    -0.157000000     3.006000000
O    -2.545000000     0.941000000     4.382000000
C    -2.926000000     1.677000000     3.267000000
C    -2.083000000     2.675000000     2.836000000
H    -1.283000000     2.943000000     3.522000000
C    -2.303000000     3.350000000     1.642000000
O    -1.544000000     4.337000000     1.178000000
C    -3.453000000     2.998000000     0.932000000
C    -3.896000000     3.683000000    -0.315000000
H    -4.963000000     3.483000000    -0.435000000
C    -3.204000000     3.367000000    -1.636000000
C    -3.711000000     2.274000000    -2.355000000
H    -4.704000000     1.894000000    -2.132000000
H    -3.930000000     4.755000000    -0.106000000
C    -4.167000000     1.876000000     1.301000000
H    -4.925000000     1.607000000     0.569000000
C    -3.938000000     1.197000000     2.422000000
C    -4.866000000     0.084000000     2.737000000
H    -5.827000000     0.171000000     2.226000000
H    -5.035000000    -0.027000000     3.810000000
C    -4.203000000    -1.189000000     2.206000000
C    -4.633000000    -1.647000000     0.946000000
H    -5.370000000    -1.072000000     0.392000000
C    -3.279000000    -1.920000000     2.872000000
C    -2.610000000    -3.001000000     2.250000000
H    -1.721000000    -3.429000000     2.707000000
C    -2.984000000    -3.347000000     0.951000000
O    -2.242000000    -4.359000000     0.443000000
C    -1.271000000    -4.038000000    -0.550000000
C    -0.060000000    -4.788000000    -0.259000000
C     0.839000000    -5.029000000    -1.290000000
H     0.514000000    -4.799000000    -2.302000000
C     0.356000000    -5.103000000     1.035000000
H    -0.333000000    -4.900000000     1.851000000
O    -1.800000000    -4.169000000    -1.877000000
H    -1.002000000    -3.002000000    -0.299000000
C    -4.035000000    -2.721000000     0.330000000
C    -4.429000000    -3.197000000    -1.083000000
H    -5.453000000    -2.900000000    -1.319000000
H    -4.360000000    -4.266000000    -1.298000000
C    -3.523000000    -2.511000000    -2.099000000
C    -3.887000000    -1.297000000    -2.601000000
H    -4.840000000    -0.844000000    -2.340000000
C    -2.283000000    -3.059000000    -2.505000000
C    -1.365000000    -2.438000000    -3.345000000
H    -0.443000000    -2.924000000    -3.652000000
C    -1.820000000    -1.221000000    -3.920000000
O    -1.011000000    -0.627000000    -4.846000000
C    -0.353000000     0.543000000    -4.380000000
C     1.115000000     0.553000000    -4.595000000
C     1.895000000    -0.572000000    -4.432000000
H     1.396000000    -1.534000000    -4.349000000
C     1.781000000     1.743000000    -4.974000000
H     1.221000000     2.631000000    -5.255000000
O    -0.972000000     1.832000000    -4.789000000
H    -0.511000000     0.656000000    -3.298000000
C    -3.146000000    -0.703000000    -3.660000000
C    -3.647000000     0.612000000    -4.269000000
H    -4.735000000     0.633000000    -4.174000000
H    -3.574000000     0.644000000    -5.358000000
C    -3.049000000     1.816000000    -3.490000000
C    -1.803000000     2.380000000    -3.870000000
C    -1.271000000     3.395000000    -3.086000000
H    -0.219000000     3.665000000    -3.132000000
C    -1.977000000     3.946000000    -1.996000000
O    -1.301000000     4.743000000    -1.109000000
C    -0.699000000     4.094000000    -0.009000000
H    -0.595000000     3.012000000    -0.182000000
C     0.707000000     4.592000000     0.245000000
C     1.326000000     4.270000000     1.476000000
H     0.794000000     3.714000000     2.244000000
C     1.408000000     5.161000000    -0.728000000
H     1.007000000     5.527000000    -1.669000000
C     2.779000000     5.379000000    -0.571000000
O     3.523000000     5.951000000    -1.608000000
C     3.401000000     5.085000000     0.618000000
H     4.448000000     5.377000000     0.636000000
C     2.678000000     4.528000000     1.629000000
O     3.353000000     4.166000000     2.792000000
C     2.717000000     3.974000000     4.000000000
C     2.715000000     2.759000000     4.666000000
H     3.233000000     1.847000000     4.381000000
C     2.031000000     5.067000000     4.590000000
H     1.910000000     6.004000000     4.053000000
C     1.306000000     4.957000000     5.808000000
H     0.845000000     5.811000000     6.297000000
C     1.417000000     3.695000000     6.471000000
H     0.844000000     3.411000000     7.349000000
C     2.146000000     2.704000000     5.950000000
O     1.898000000     1.446000000     6.593000000
C     1.260000000     0.345000000     6.230000000
C     1.630000000    -0.938000000     6.605000000
H     2.587000000    -1.146000000     7.076000000
C     0.939000000    -2.019000000     6.109000000
O     1.325000000    -3.254000000     6.548000000
C     1.094000000    -4.414000000     5.712000000
C     1.770000000    -4.721000000     4.496000000
H     2.258000000    -3.905000000     3.969000000
C     0.240000000    -5.459000000     6.197000000
H    -0.353000000    -5.193000000     7.068000000
C     0.080000000    -6.626000000     5.562000000
H    -0.625000000    -7.384000000     5.892000000
C     0.792000000    -6.907000000     4.377000000
H     0.709000000    -7.921000000     3.994000000
C     1.520000000    -5.845000000     3.730000000
O     2.123000000    -6.024000000     2.477000000
C     1.586000000    -5.716000000     1.208000000
C     2.401000000    -6.074000000     0.175000000
H     3.357000000    -6.583000000     0.270000000
C     2.045000000    -5.635000000    -1.058000000
O     2.835000000    -5.903000000    -2.179000000
C     2.927000000    -5.101000000    -3.333000000
C     3.475000000    -3.769000000    -3.225000000
H     3.746000000    -3.393000000    -2.242000000
C     2.527000000    -5.597000000    -4.579000000
H     2.076000000    -6.584000000    -4.646000000
C     2.560000000    -4.769000000    -5.717000000
H     2.304000000    -5.190000000    -6.686000000
C     3.067000000    -3.488000000    -5.581000000
H     3.327000000    -2.926000000    -6.475000000
C     3.524000000    -2.961000000    -4.377000000
O     4.061000000    -1.680000000    -4.385000000
C     3.276000000    -0.527000000    -4.554000000
C     3.926000000     0.716000000    -4.716000000
H     5.003000000     0.823000000    -4.616000000
C     3.187000000     1.802000000    -4.960000000
O     3.774000000     2.957000000    -5.342000000
C     3.510000000     4.213000000    -4.847000000
C     3.716000000     5.297000000    -5.677000000
H     3.868000000     5.085000000    -6.732000000
C     3.693000000     6.622000000    -5.243000000
H     3.837000000     7.425000000    -5.962000000
C     3.492000000     6.754000000    -3.852000000
H     3.428000000     7.752000000    -3.427000000
C     3.396000000     5.703000000    -2.963000000
C     3.380000000     4.423000000    -3.409000000
H     3.449000000     3.608000000    -2.694000000
C     2.053000000    -1.927000000    -0.024000000
H     2.717000000    -2.716000000    -0.367000000
C     1.016000000    -1.418000000    -0.833000000
H     0.770000000    -1.817000000    -1.813000000
C     0.231000000    -0.411000000    -0.305000000
H    -0.604000000    -0.033000000    -0.868000000
C     0.424000000     0.179000000     0.957000000
H    -0.245000000     0.931000000     1.368000000
C     1.581000000    -0.206000000     1.635000000
H     1.810000000     0.195000000     2.619000000
C     2.326000000    -1.348000000     1.235000000
C     3.423000000    -1.904000000     2.069000000
O     3.405000000    -1.486000000     3.232000000
O     4.360000000    -2.554000000     1.638000000
O     6.105000000    -0.749000000    -2.071000000
H     6.439000000    -1.506000000    -2.551000000
H     6.656000000    -0.021000000    -2.360000000
O     6.061000000     3.098000000     4.192000000
H     5.815000000     2.756000000     3.333000000
H     5.689000000     2.474000000     4.815000000
O     7.982000000     0.397000000     4.499000000
H     7.595000000     0.172000000     3.653000000
H     7.232000000     0.585000000     5.063000000
O     5.170000000     0.971000000     1.784000000
H     4.631000000     1.113000000     1.006000000
H     4.938000000     0.090000000     2.079000000
O     3.415000000    -8.445000000     3.006000000
H     4.369000000    -8.519000000     3.043000000
H     3.241000000    -7.513000000     3.137000000
O     6.807000000    -1.509000000     2.693000000
H     6.128000000    -1.919000000     2.158000000
H     6.996000000    -2.153000000     3.376000000
O     4.916000000    -5.309000000     2.245000000
H     4.928000000    -5.327000000     3.202000000
H     4.058000000    -4.947000000     2.023000000
O     4.825000000    -1.763000000     5.579000000
H     5.404000000    -2.509000000     5.424000000
H     4.307000000    -1.692000000     4.777000000
O     4.179000000     0.730000000    -0.573000000
H     4.802000000     0.271000000    -1.136000000
H     3.320000000     0.443000000    -0.883000000
O     6.381000000    -5.179000000    -2.175000000
H     6.681000000    -5.747000000    -1.465000000
H     5.965000000    -4.441000000    -1.731000000
O     5.382000000     0.966000000     5.863000000
H     5.216000000     0.025000000     5.822000000
H     4.976000000     1.245000000     6.684000000
O     5.994000000    -2.966000000    -0.410000000
H     5.942000000    -2.120000000    -0.855000000
H     5.414000000    -2.875000000     0.346000000
O     4.788000000    -1.109000000     8.258000000
H     4.953000000    -1.228000000     7.323000000
H     4.916000000    -1.980000000     8.636000000
O     8.542000000    -0.241000000     0.913000000
H     7.757000000    -0.481000000     1.405000000
H     8.904000000     0.506000000     1.391000000
O     7.204000000    -3.270000000     4.889000000
H     6.552000000    -3.899000000     4.578000000
H     8.044000000    -3.703000000     4.737000000
O     6.359000000    -6.697000000     0.356000000
H     5.865000000    -6.584000000     1.169000000
H     6.785000000    -7.548000000     0.452000000
O     5.321000000    -5.138000000     4.834000000
H     5.279000000    -4.963000000     5.774000000
H     5.376000000    -6.091000000     4.770000000
O     7.686000000    -4.559000000     1.122000000
H     7.142000000    -5.289000000     0.828000000
H     7.170000000    -3.779000000     0.919000000
O     6.156000000     2.738000000    -0.973000000
H     6.604000000     2.430000000    -1.761000000
H     5.722000000     1.959000000    -0.625000000
