215
-1456.30007
C    -0.512000000    -2.023000000     3.650000000
H    -0.895000000    -2.587000000     2.803000000
C    -1.173000000    -0.876000000     4.123000000
C    -0.622000000    -0.171000000     5.157000000
H    -1.139000000     0.710000000     5.530000000
C    -2.409000000    -0.334000000     3.384000000
O    -3.324000000    -1.415000000     3.105000000
H    -2.022000000     0.046000000     2.427000000
O    -3.063000000     0.777000000     3.933000000
C    -3.304000000     1.839000000     3.153000000
C    -2.391000000     2.848000000     3.137000000
H    -1.652000000     2.933000000     3.929000000
C    -2.416000000     3.809000000     2.090000000
O    -1.321000000     4.627000000     2.000000000
C    -3.360000000     3.699000000     1.095000000
C    -3.301000000     4.631000000    -0.094000000
H    -4.297000000     4.701000000    -0.535000000
C    -2.374000000     4.058000000    -1.203000000
C    -2.862000000     3.503000000    -2.373000000
H    -3.916000000     3.293000000    -2.533000000
H    -2.973000000     5.628000000     0.206000000
C    -4.133000000     2.564000000     1.035000000
H    -4.811000000     2.300000000     0.227000000
C    -4.227000000     1.666000000     2.129000000
C    -5.175000000     0.479000000     2.067000000
H    -6.164000000     0.873000000     1.825000000
H    -5.302000000     0.144000000     3.099000000
C    -4.643000000    -0.716000000     1.201000000
C    -5.005000000    -0.871000000    -0.180000000
H    -5.840000000    -0.316000000    -0.600000000
C    -3.776000000    -1.594000000     1.768000000
C    -3.347000000    -2.686000000     1.022000000
H    -2.815000000    -3.489000000     1.525000000
C    -3.671000000    -2.808000000    -0.328000000
O    -3.111000000    -3.925000000    -0.982000000
C    -1.978000000    -3.636000000    -1.811000000
C    -0.857000000    -4.651000000    -1.691000000
C     0.191000000    -4.770000000    -2.663000000
H     0.089000000    -4.240000000    -3.606000000
C    -0.797000000    -5.499000000    -0.565000000
H    -1.401000000    -5.338000000     0.325000000
O    -2.433000000    -3.452000000    -3.153000000
H    -1.601000000    -2.638000000    -1.542000000
C    -4.546000000    -1.888000000    -0.998000000
C    -4.883000000    -1.944000000    -2.477000000
H    -5.816000000    -1.415000000    -2.681000000
H    -4.951000000    -2.999000000    -2.748000000
C    -3.704000000    -1.332000000    -3.196000000
C    -3.637000000    -0.001000000    -3.451000000
H    -4.531000000     0.591000000    -3.273000000
C    -2.604000000    -2.129000000    -3.550000000
C    -1.543000000    -1.475000000    -4.112000000
H    -0.719000000    -2.157000000    -4.309000000
C    -1.532000000    -0.162000000    -4.520000000
O    -0.295000000     0.338000000    -4.878000000
C     0.429000000     1.117000000    -3.866000000
C     1.928000000     0.780000000    -4.001000000
C     2.397000000    -0.346000000    -4.767000000
H     1.680000000    -0.985000000    -5.277000000
C     2.781000000     1.409000000    -3.119000000
H     2.304000000     2.172000000    -2.509000000
O     0.246000000     2.555000000    -4.129000000
H     0.124000000     0.725000000    -2.885000000
C    -2.684000000     0.646000000    -4.218000000
C    -2.673000000     2.103000000    -4.519000000
H    -3.723000000     2.366000000    -4.663000000
H    -2.199000000     2.363000000    -5.468000000
C    -2.034000000     3.008000000    -3.414000000
C    -0.643000000     3.138000000    -3.263000000
C    -0.108000000     3.810000000    -2.218000000
H     0.957000000     4.023000000    -2.178000000
C    -0.964000000     4.217000000    -1.142000000
O    -0.417000000     4.898000000    -0.053000000
C    -0.332000000     4.162000000     1.120000000
H    -0.327000000     3.066000000     1.031000000
C     1.009000000     4.476000000     1.841000000
C     1.236000000     4.314000000     3.230000000
H     0.349000000     4.182000000     3.844000000
C     2.145000000     4.680000000     1.035000000
H     2.128000000     4.769000000    -0.048000000
C     3.414000000     4.955000000     1.579000000
O     4.445000000     5.308000000     0.697000000
C     3.536000000     4.975000000     2.965000000
H     4.548000000     5.025000000     3.358000000
C     2.498000000     4.602000000     3.818000000
O     2.735000000     4.548000000     5.181000000
C     2.003000000     3.812000000     6.053000000
C     1.642000000     2.497000000     5.775000000
H     1.749000000     2.083000000     4.776000000
C     1.869000000     4.323000000     7.329000000
H     2.158000000     5.338000000     7.588000000
C     1.494000000     3.496000000     8.381000000
H     1.410000000     3.862000000     9.401000000
C     1.224000000     2.149000000     8.154000000
H     0.961000000     1.544000000     9.018000000
C     1.222000000     1.629000000     6.855000000
O     1.109000000     0.269000000     6.760000000
C     0.601000000    -0.540000000     5.700000000
C     1.320000000    -1.607000000     5.228000000
H     2.302000000    -1.973000000     5.515000000
C     0.695000000    -2.402000000     4.245000000
O     1.303000000    -3.472000000     3.657000000
C     0.723000000    -4.682000000     3.541000000
C     0.843000000    -5.266000000     2.254000000
H     1.348000000    -4.690000000     1.483000000
C     0.112000000    -5.362000000     4.580000000
H    -0.028000000    -4.851000000     5.529000000
C    -0.299000000    -6.706000000     4.443000000
H    -0.718000000    -7.284000000     5.262000000
C    -0.161000000    -7.285000000     3.164000000
H    -0.415000000    -8.322000000     2.960000000
C     0.345000000    -6.504000000     2.105000000
O     0.400000000    -7.083000000     0.835000000
C     0.276000000    -6.373000000    -0.346000000
C     1.228000000    -6.560000000    -1.391000000
H     2.099000000    -7.166000000    -1.156000000
C     1.176000000    -5.831000000    -2.546000000
O     2.226000000    -5.931000000    -3.446000000
C     2.465000000    -5.169000000    -4.537000000
C     3.185000000    -3.973000000    -4.416000000
H     3.363000000    -3.612000000    -3.407000000
C     2.120000000    -5.598000000    -5.788000000
H     1.591000000    -6.541000000    -5.900000000
C     2.312000000    -4.714000000    -6.853000000
H     1.999000000    -5.002000000    -7.853000000
C     3.052000000    -3.545000000    -6.768000000
H     3.141000000    -2.811000000    -7.565000000
C     3.515000000    -3.119000000    -5.495000000
O     4.211000000    -1.960000000    -5.308000000
C     3.787000000    -0.790000000    -4.639000000
C     4.567000000    -0.114000000    -3.707000000
H     5.565000000    -0.497000000    -3.509000000
C     4.084000000     0.987000000    -3.002000000
O     4.951000000     1.575000000    -2.191000000
C     5.021000000     2.945000000    -2.044000000
C     4.970000000     3.687000000    -3.127000000
H     5.150000000     3.231000000    -4.097000000
C     4.685000000     5.068000000    -2.973000000
H     4.632000000     5.706000000    -3.851000000
C     4.565000000     5.629000000    -1.715000000
H     4.426000000     6.707000000    -1.689000000
C     4.691000000     4.846000000    -0.588000000
C     4.955000000     3.491000000    -0.726000000
H     4.927000000     2.829000000     0.136000000
C     1.811000000    -1.194000000    -0.005000000
H     2.737000000    -1.685000000    -0.293000000
C     0.716000000    -1.308000000    -0.791000000
H     0.705000000    -2.026000000    -1.607000000
C    -0.415000000    -0.501000000    -0.486000000
H    -1.333000000    -0.492000000    -1.105000000
C    -0.436000000     0.309000000     0.586000000
H    -1.263000000     0.984000000     0.787000000
C     0.679000000     0.421000000     1.429000000
H     0.605000000     1.115000000     2.263000000
C     1.777000000    -0.371000000     1.157000000
C     3.030000000    -0.332000000     2.051000000
O     2.961000000     0.174000000     3.134000000
O     3.993000000    -1.020000000     1.652000000
O     5.423000000    -0.785000000    -0.480000000
H     5.191000000    -0.019000000    -1.004000000
H     4.819000000    -0.760000000     0.262000000
O     4.532000000     2.035000000     8.475000000
H     4.114000000     2.622000000     7.844000000
H     4.474000000     1.169000000     8.072000000
O     7.359000000     1.181000000     2.023000000
H     7.655000000     2.019000000     2.378000000
H     7.691000000     1.171000000     1.125000000
O     8.143000000    -1.042000000    -2.488000000
H     7.532000000    -0.754000000    -1.811000000
H     8.029000000    -1.992000000    -2.525000000
O     4.788000000     2.209000000     3.312000000
H     5.417000000     1.846000000     2.688000000
H     4.064000000     1.583000000     3.314000000
O    10.228000000     0.121000000     1.873000000
H    10.267000000    -0.365000000     1.050000000
H     9.339000000    -0.026000000     2.196000000
O     3.558000000    -6.306000000     5.742000000
H     3.912000000    -5.427000000     5.610000000
H     2.613000000    -6.203000000     5.630000000
O     6.373000000    -1.840000000     2.581000000
H     5.460000000    -1.602000000     2.416000000
H     6.876000000    -1.088000000     2.270000000
O     3.856000000    -3.737000000     2.138000000
H     3.745000000    -2.833000000     1.844000000
H     3.278000000    -3.814000000     2.897000000
O     4.033000000    -6.202000000     0.737000000
H     3.814000000    -5.339000000     1.089000000
H     4.505000000    -6.637000000     1.446000000
O     4.300000000    -0.368000000     7.450000000
H     4.443000000    -1.298000000     7.626000000
H     4.319000000    -0.298000000     6.496000000
O     7.590000000    -3.880000000    -2.293000000
H     7.389000000    -3.900000000    -3.228000000
H     6.738000000    -3.964000000    -1.863000000
O     5.416000000    -3.577000000    -0.522000000
H     5.204000000    -3.816000000     0.380000000
H     5.337000000    -2.623000000    -0.542000000
O     4.553000000    -1.153000000     4.742000000
H     5.317000000    -1.227000000     4.169000000
H     3.984000000    -0.521000000     4.303000000
O     5.552000000     3.005000000     5.959000000
H     5.405000000     2.735000000     5.052000000
H     5.700000000     2.186000000     6.431000000
O     8.263000000    -3.801000000     2.664000000
H     7.698000000    -3.182000000     2.200000000
H     8.172000000    -3.564000000     3.587000000
O     7.611000000    -3.314000000     5.305000000
H     6.708000000    -3.373000000     5.615000000
H     7.948000000    -4.207000000     5.376000000
O     4.699000000    -3.892000000     5.618000000
H     4.708000000    -3.045000000     5.172000000
H     4.720000000    -3.673000000     6.549000000
O     8.487000000     1.744000000    -0.565000000
H     9.410000000     1.992000000    -0.519000000
H     8.108000000     2.348000000    -1.203000000
