215
-1465.85895
C    -0.711000000    -2.573000000     4.463000000
H    -1.084000000    -3.292000000     3.739000000
C    -1.278000000    -1.330000000     4.489000000
C    -0.790000000    -0.397000000     5.439000000
H    -1.096000000     0.644000000     5.380000000
C    -2.311000000    -0.980000000     3.454000000
O    -3.113000000    -2.182000000     3.190000000
H    -1.842000000    -0.717000000     2.494000000
O    -3.150000000     0.105000000     3.878000000
C    -3.557000000     1.033000000     2.893000000
C    -2.854000000     2.193000000     2.828000000
H    -2.116000000     2.431000000     3.590000000
C    -3.005000000     3.131000000     1.807000000
O    -2.074000000     4.151000000     1.824000000
C    -3.938000000     2.843000000     0.757000000
C    -4.129000000     3.760000000    -0.450000000
H    -5.169000000     3.663000000    -0.770000000
C    -3.100000000     3.351000000    -1.496000000
C    -3.398000000     2.516000000    -2.516000000
H    -4.405000000     2.142000000    -2.678000000
H    -3.974000000     4.776000000    -0.082000000
C    -4.723000000     1.673000000     0.871000000
H    -5.436000000     1.404000000     0.095000000
C    -4.539000000     0.701000000     1.908000000
C    -5.282000000    -0.602000000     1.889000000
H    -6.146000000    -0.420000000     1.247000000
H    -5.746000000    -0.905000000     2.830000000
C    -4.470000000    -1.696000000     1.258000000
C    -4.607000000    -1.889000000    -0.137000000
H    -5.163000000    -1.156000000    -0.715000000
C    -3.532000000    -2.473000000     1.953000000
C    -2.852000000    -3.515000000     1.306000000
H    -2.142000000    -4.123000000     1.859000000
C    -2.956000000    -3.641000000    -0.089000000
O    -2.144000000    -4.474000000    -0.709000000
C    -0.990000000    -3.898000000    -1.440000000
C     0.344000000    -4.563000000    -1.084000000
C     1.432000000    -4.340000000    -1.968000000
H     1.199000000    -3.876000000    -2.923000000
C     0.507000000    -5.146000000     0.154000000
H    -0.373000000    -5.256000000     0.784000000
O    -1.252000000    -3.961000000    -2.853000000
H    -0.784000000    -2.831000000    -1.268000000
C    -3.900000000    -2.903000000    -0.789000000
C    -4.032000000    -3.051000000    -2.285000000
H    -5.075000000    -2.933000000    -2.586000000
H    -3.825000000    -4.057000000    -2.656000000
C    -3.016000000    -2.218000000    -3.072000000
C    -3.367000000    -1.068000000    -3.563000000
H    -4.374000000    -0.683000000    -3.423000000
C    -1.726000000    -2.731000000    -3.384000000
C    -0.767000000    -2.047000000    -4.075000000
H     0.256000000    -2.412000000    -4.114000000
C    -1.110000000    -0.734000000    -4.423000000
O    -0.115000000     0.092000000    -4.956000000
C     0.458000000     1.073000000    -4.065000000
C     2.015000000     1.299000000    -4.251000000
C     2.753000000     0.215000000    -4.690000000
H     2.273000000    -0.708000000    -5.008000000
C     2.589000000     2.493000000    -3.755000000
H     1.989000000     3.303000000    -3.348000000
O    -0.194000000     2.338000000    -4.204000000
H     0.315000000     0.639000000    -3.065000000
C    -2.404000000    -0.263000000    -4.189000000
C    -2.759000000     1.186000000    -4.549000000
H    -3.812000000     1.274000000    -4.824000000
H    -2.201000000     1.486000000    -5.438000000
C    -2.406000000     2.228000000    -3.488000000
C    -1.137000000     2.757000000    -3.377000000
C    -0.872000000     3.663000000    -2.369000000
H     0.093000000     4.162000000    -2.410000000
C    -1.828000000     3.959000000    -1.365000000
O    -1.400000000     4.745000000    -0.293000000
C    -1.019000000     4.004000000     0.882000000
H    -0.987000000     2.942000000     0.599000000
C     0.327000000     4.505000000     1.432000000
C     0.929000000     3.759000000     2.437000000
H     0.445000000     2.903000000     2.901000000
C     1.127000000     5.446000000     0.714000000
H     0.785000000     5.779000000    -0.262000000
C     2.463000000     5.608000000     1.021000000
O     3.245000000     6.441000000     0.310000000
C     2.950000000     4.965000000     2.140000000
H     3.958000000     5.049000000     2.538000000
C     2.212000000     4.034000000     2.859000000
O     2.780000000     3.487000000     3.978000000
C     2.101000000     3.098000000     5.120000000
C     1.936000000     1.792000000     5.455000000
H     2.370000000     1.042000000     4.799000000
C     1.725000000     4.150000000     6.035000000
H     1.914000000     5.203000000     5.846000000
C     1.199000000     3.807000000     7.232000000
H     1.024000000     4.478000000     8.069000000
C     0.837000000     2.486000000     7.468000000
H     0.348000000     2.216000000     8.401000000
C     1.195000000     1.466000000     6.567000000
O     0.968000000     0.189000000     7.036000000
C     0.302000000    -0.706000000     6.231000000
C     0.690000000    -2.039000000     6.340000000
H     1.422000000    -2.425000000     7.044000000
C     0.206000000    -2.987000000     5.471000000
O     0.539000000    -4.334000000     5.824000000
C     0.434000000    -5.362000000     4.889000000
C     1.292000000    -5.362000000     3.756000000
H     2.148000000    -4.694000000     3.700000000
C    -0.562000000    -6.304000000     4.936000000
H    -1.206000000    -6.221000000     5.807000000
C    -0.845000000    -7.171000000     3.903000000
H    -1.638000000    -7.914000000     3.931000000
C     0.045000000    -7.248000000     2.824000000
H     0.013000000    -7.962000000     2.005000000
C     1.051000000    -6.308000000     2.715000000
O     1.912000000    -6.329000000     1.670000000
C     1.773000000    -5.613000000     0.536000000
C     2.886000000    -5.353000000    -0.297000000
H     3.832000000    -5.772000000     0.035000000
C     2.737000000    -4.664000000    -1.527000000
O     3.821000000    -4.596000000    -2.366000000
C     3.898000000    -3.971000000    -3.621000000
C     4.473000000    -2.702000000    -3.755000000
H     4.935000000    -2.121000000    -2.960000000
C     3.285000000    -4.509000000    -4.709000000
H     2.658000000    -5.383000000    -4.556000000
C     3.297000000    -3.845000000    -5.918000000
H     2.615000000    -4.167000000    -6.700000000
C     3.872000000    -2.655000000    -6.023000000
H     3.852000000    -2.103000000    -6.959000000
C     4.489000000    -1.996000000    -4.946000000
O     4.982000000    -0.701000000    -5.036000000
C     4.161000000     0.376000000    -4.735000000
C     4.719000000     1.620000000    -4.303000000
H     5.802000000     1.700000000    -4.241000000
C     4.014000000     2.649000000    -3.798000000
O     4.572000000     3.883000000    -3.549000000
C     3.948000000     4.952000000    -2.985000000
C     3.470000000     5.912000000    -3.829000000
H     3.465000000     5.712000000    -4.898000000
C     2.940000000     7.118000000    -3.356000000
H     2.640000000     7.876000000    -4.075000000
C     2.932000000     7.348000000    -1.966000000
H     2.462000000     8.275000000    -1.647000000
C     3.369000000     6.356000000    -1.056000000
C     3.790000000     5.169000000    -1.618000000
H     3.969000000     4.313000000    -0.972000000
C     1.949000000     0.849000000    -0.248000000
H     2.632000000     1.590000000    -0.655000000
C     0.624000000     0.789000000    -0.706000000
H     0.248000000     1.536000000    -1.401000000
C    -0.260000000    -0.182000000    -0.181000000
H    -1.326000000    -0.077000000    -0.418000000
C     0.225000000    -1.133000000     0.687000000
H    -0.356000000    -1.951000000     1.105000000
C     1.509000000    -1.006000000     1.205000000
H     1.755000000    -1.774000000     1.934000000
C     2.394000000    -0.035000000     0.748000000
C     3.764000000     0.021000000     1.409000000
O     3.941000000    -0.648000000     2.425000000
O     4.527000000     0.806000000     0.893000000
O     5.685000000     2.125000000    -1.011000000
H     6.107000000     2.814000000    -0.499000000
H     5.186000000     1.620000000    -0.368000000
O     4.628000000    -0.776000000     5.072000000
H     4.119000000    -0.740000000     4.262000000
H     5.532000000    -0.633000000     4.793000000
O     6.905000000     4.218000000     0.101000000
H     6.768000000     4.476000000     1.012000000
H     7.386000000     4.950000000    -0.286000000
O     6.050000000    -0.923000000    -0.667000000
H     5.470000000    -0.360000000    -0.154000000
H     6.287000000    -0.393000000    -1.428000000
O     9.791000000    -0.650000000     2.041000000
H     9.212000000     0.101000000     2.170000000
H     9.288000000    -1.247000000     1.486000000
O     5.570000000     2.358000000     2.574000000
H     5.206000000     2.020000000     1.756000000
H     4.964000000     2.053000000     3.249000000
O     8.369000000     1.674000000     2.019000000
H     8.817000000     2.075000000     1.275000000
H     7.678000000     2.296000000     2.247000000
O     7.166000000     4.927000000     2.898000000
H     6.521000000     5.624000000     3.017000000
H     7.011000000     4.330000000     3.631000000
O     6.597000000    -0.545000000     3.019000000
H     5.723000000    -0.402000000     2.656000000
H     7.008000000     0.319000000     3.000000000
O     5.192000000    -2.914000000     1.403000000
H     5.972000000    -2.396000000     1.205000000
H     4.586000000    -2.292000000     1.806000000
O     7.414000000    -0.053000000    -3.262000000
H     8.218000000    -0.544000000    -3.431000000
H     6.731000000    -0.550000000    -3.714000000
O     8.360000000    -2.272000000     0.165000000
H     8.381000000    -3.113000000    -0.293000000
H     7.650000000    -1.788000000    -0.257000000
O     4.701000000    -3.915000000     3.964000000
H     5.033000000    -3.484000000     3.176000000
H     5.112000000    -3.442000000     4.687000000
O     7.206000000     0.804000000     6.265000000
H     7.230000000    -0.118000000     6.008000000
H     7.687000000     0.834000000     7.092000000
O     8.378000000     2.429000000    -2.248000000
H     7.671000000     3.004000000    -1.954000000
H     7.955000000     1.581000000    -2.387000000
O     6.232000000    -4.219000000    -1.132000000
H     5.726000000    -3.620000000    -0.582000000
H     5.591000000    -4.579000000    -1.746000000
O     7.605000000    -3.072000000     3.578000000
H     7.318000000    -2.357000000     3.009000000
H     7.367000000    -2.785000000     4.460000000
O     3.648000000    -0.174000000     7.581000000
H     2.825000000    -0.653000000     7.479000000
H     4.017000000    -0.143000000     6.698000000
O     7.286000000     3.329000000     5.524000000
H     7.281000000     2.372000000     5.493000000
H     6.457000000     3.559000000     5.942000000
