215
-1452.85838
C    -0.176000000    -2.215000000     4.233000000
H    -0.715000000    -2.947000000     3.638000000
C    -0.631000000    -0.927000000     4.473000000
C     0.156000000    -0.030000000     5.162000000
H    -0.198000000     0.987000000     5.312000000
C    -1.937000000    -0.366000000     3.882000000
O    -2.926000000    -1.390000000     3.811000000
H    -1.639000000    -0.126000000     2.851000000
O    -2.422000000     0.831000000     4.541000000
C    -2.785000000     1.829000000     3.635000000
C    -1.789000000     2.800000000     3.412000000
H    -0.952000000     2.879000000     4.102000000
C    -1.835000000     3.612000000     2.289000000
O    -0.823000000     4.497000000     1.981000000
C    -2.958000000     3.489000000     1.392000000
C    -3.116000000     4.356000000     0.172000000
H    -4.185000000     4.488000000    -0.005000000
C    -2.437000000     3.907000000    -1.201000000
C    -3.111000000     3.268000000    -2.228000000
H    -4.148000000     2.943000000    -2.188000000
H    -2.823000000     5.345000000     0.531000000
C    -3.980000000     2.586000000     1.655000000
H    -4.777000000     2.397000000     0.941000000
C    -3.845000000     1.727000000     2.757000000
C    -4.805000000     0.537000000     2.742000000
H    -5.761000000     0.840000000     2.309000000
H    -5.105000000     0.242000000     3.750000000
C    -4.298000000    -0.704000000     1.940000000
C    -4.717000000    -0.938000000     0.630000000
H    -5.293000000    -0.147000000     0.155000000
C    -3.459000000    -1.657000000     2.545000000
C    -3.198000000    -2.880000000     1.915000000
H    -2.689000000    -3.711000000     2.396000000
C    -3.635000000    -3.041000000     0.598000000
O    -3.075000000    -4.094000000    -0.047000000
C    -1.993000000    -3.757000000    -0.901000000
C    -0.863000000    -4.821000000    -0.833000000
C    -0.039000000    -5.028000000    -1.956000000
H    -0.173000000    -4.387000000    -2.824000000
C    -0.734000000    -5.676000000     0.261000000
H    -1.303000000    -5.488000000     1.168000000
O    -2.446000000    -3.590000000    -2.302000000
H    -1.534000000    -2.844000000    -0.494000000
C    -4.399000000    -2.082000000    -0.058000000
C    -4.895000000    -2.256000000    -1.548000000
H    -5.851000000    -1.780000000    -1.776000000
H    -5.097000000    -3.307000000    -1.762000000
C    -3.857000000    -1.608000000    -2.445000000
C    -4.005000000    -0.336000000    -2.938000000
H    -4.902000000     0.244000000    -2.738000000
C    -2.708000000    -2.355000000    -2.785000000
C    -1.820000000    -1.795000000    -3.725000000
H    -0.978000000    -2.315000000    -4.174000000
C    -1.931000000    -0.480000000    -4.161000000
O    -0.852000000     0.164000000    -4.824000000
C     0.017000000     0.995000000    -4.023000000
C     1.483000000     0.705000000    -4.332000000
C     1.867000000    -0.560000000    -4.755000000
H     1.107000000    -1.290000000    -5.022000000
C     2.452000000     1.676000000    -4.168000000
H     2.180000000     2.632000000    -3.728000000
O    -0.288000000     2.334000000    -4.388000000
H    -0.173000000     0.838000000    -2.951000000
C    -3.011000000     0.295000000    -3.712000000
C    -3.104000000     1.757000000    -4.156000000
H    -4.153000000     2.043000000    -4.261000000
H    -2.633000000     1.815000000    -5.140000000
C    -2.425000000     2.706000000    -3.269000000
C    -1.051000000     3.031000000    -3.479000000
C    -0.448000000     3.762000000    -2.464000000
H     0.623000000     3.946000000    -2.477000000
C    -1.093000000     4.238000000    -1.386000000
O    -0.351000000     4.985000000    -0.429000000
C     0.049000000     4.319000000     0.787000000
H     0.036000000     3.264000000     0.476000000
C     1.507000000     4.650000000     1.117000000
C     2.016000000     4.486000000     2.432000000
H     1.400000000     4.024000000     3.199000000
C     2.392000000     4.883000000     0.079000000
H     1.998000000     4.937000000    -0.932000000
C     3.732000000     5.169000000     0.344000000
O     4.558000000     5.580000000    -0.709000000
C     4.219000000     5.025000000     1.641000000
H     5.269000000     5.161000000     1.888000000
C     3.382000000     4.682000000     2.699000000
O     3.954000000     4.294000000     3.920000000
C     3.224000000     3.780000000     4.933000000
C     3.096000000     2.387000000     5.025000000
H     3.625000000     1.818000000     4.264000000
C     2.523000000     4.591000000     5.768000000
H     2.531000000     5.652000000     5.534000000
C     1.766000000     4.082000000     6.807000000
H     1.108000000     4.765000000     7.339000000
C     1.777000000     2.710000000     7.070000000
H     1.277000000     2.273000000     7.930000000
C     2.392000000     1.890000000     6.118000000
O     2.271000000     0.505000000     6.293000000
C     1.412000000    -0.405000000     5.649000000
C     1.839000000    -1.677000000     5.432000000
H     2.826000000    -1.998000000     5.755000000
C     1.008000000    -2.646000000     4.809000000
O     1.633000000    -3.802000000     4.484000000
C     0.882000000    -4.924000000     4.153000000
C     1.075000000    -5.635000000     2.945000000
H     1.620000000    -5.090000000     2.178000000
C     0.036000000    -5.447000000     5.095000000
H    -0.124000000    -4.936000000     6.041000000
C    -0.377000000    -6.723000000     4.937000000
H    -0.997000000    -7.081000000     5.754000000
C    -0.227000000    -7.475000000     3.708000000
H    -0.763000000    -8.397000000     3.495000000
C     0.435000000    -6.884000000     2.700000000
O     0.521000000    -7.445000000     1.430000000
C     0.327000000    -6.592000000     0.311000000
C     1.104000000    -6.876000000    -0.819000000
H     1.749000000    -7.750000000    -0.767000000
C     0.962000000    -6.076000000    -1.952000000
O     1.777000000    -6.265000000    -2.994000000
C     1.886000000    -5.296000000    -4.012000000
C     2.654000000    -4.102000000    -3.867000000
H     3.073000000    -3.914000000    -2.882000000
C     1.247000000    -5.559000000    -5.193000000
H     0.607000000    -6.409000000    -5.411000000
C     1.288000000    -4.632000000    -6.262000000
H     0.691000000    -4.782000000    -7.158000000
C     2.100000000    -3.492000000    -6.160000000
H     2.120000000    -2.746000000    -6.950000000
C     2.777000000    -3.223000000    -4.970000000
O     3.623000000    -2.119000000    -4.976000000
C     3.192000000    -0.861000000    -4.837000000
C     4.195000000     0.152000000    -4.722000000
H     5.264000000    -0.023000000    -4.809000000
C     3.781000000     1.449000000    -4.470000000
O     4.770000000     2.438000000    -4.309000000
C     4.491000000     3.713000000    -3.908000000
C     3.857000000     4.705000000    -4.649000000
H     3.556000000     4.499000000    -5.673000000
C     3.391000000     5.937000000    -4.107000000
H     2.845000000     6.718000000    -4.629000000
C     3.686000000     6.179000000    -2.756000000
H     3.210000000     7.087000000    -2.394000000
C     4.381000000     5.293000000    -1.994000000
C     4.807000000     4.048000000    -2.575000000
H     5.200000000     3.302000000    -1.889000000
C     0.900000000    -1.579000000     0.425000000
H     1.024000000    -2.517000000    -0.110000000
C    -0.126000000    -0.727000000     0.076000000
H    -0.782000000    -0.908000000    -0.772000000
C    -0.207000000     0.533000000     0.675000000
H    -0.960000000     1.241000000     0.398000000
C     0.623000000     0.845000000     1.760000000
H     0.565000000     1.823000000     2.232000000
C     1.588000000    -0.021000000     2.169000000
H     2.288000000     0.182000000     2.976000000
C     1.751000000    -1.286000000     1.546000000
C     2.997000000    -2.229000000     1.773000000
O     3.955000000    -1.919000000     2.419000000
O     3.102000000    -3.293000000     1.190000000
O     5.443000000    -0.937000000    -1.741000000
H     5.577000000    -1.284000000    -2.623000000
H     5.241000000    -1.707000000    -1.209000000
O     7.086000000     1.650000000     2.240000000
H     6.228000000     1.270000000     2.049000000
H     6.924000000     2.256000000     2.963000000
O     4.739000000     0.655000000     1.718000000
H     3.839000000     0.930000000     1.541000000
H     4.659000000    -0.253000000     2.007000000
O     7.561000000     0.839000000    -1.856000000
H     7.299000000     1.100000000    -2.739000000
H     6.866000000     0.249000000    -1.565000000
O     3.585000000    -8.472000000     0.797000000
H     3.952000000    -8.693000000     1.653000000
H     3.508000000    -7.518000000     0.809000000
O     8.054000000    -1.814000000    -0.747000000
H     7.780000000    -2.043000000     0.141000000
H     7.288000000    -1.388000000    -1.131000000
O     6.473000000    -2.063000000     1.703000000
H     6.930000000    -1.923000000     2.533000000
H     5.546000000    -2.085000000     1.942000000
O     4.290000000    -5.972000000     6.289000000
H     3.801000000    -5.363000000     5.735000000
H     5.147000000    -5.561000000     6.398000000
O     4.317000000    -5.943000000     0.796000000
H     4.958000000    -6.032000000     1.501000000
H     4.014000000    -5.038000000     0.860000000
O     4.660000000    -3.459000000     4.799000000
H     5.466000000    -2.965000000     4.654000000
H     4.151000000    -3.327000000     3.999000000
O     5.360000000     0.896000000     6.817000000
H     4.482000000     0.615000000     6.560000000
H     5.586000000     1.582000000     6.188000000
O     3.373000000     0.991000000    -1.083000000
H     3.602000000     0.170000000    -1.519000000
H     4.168000000     1.243000000    -0.614000000
O     6.669000000    -4.806000000    -1.955000000
H     6.043000000    -5.494000000    -2.179000000
H     6.256000000    -4.333000000    -1.232000000
O     4.985000000    -3.231000000    -0.475000000
H     5.487000000    -3.022000000     0.313000000
H     4.083000000    -3.323000000    -0.167000000
O     5.523000000    -2.990000000     8.034000000
H     5.187000000    -2.370000000     8.681000000
H     4.958000000    -2.869000000     7.271000000
O     7.433000000    -2.299000000     4.964000000
H     8.194000000    -2.122000000     4.411000000
H     7.541000000    -1.716000000     5.715000000
O     5.366000000    -7.702000000    -1.480000000
H     4.743000000    -7.233000000    -0.925000000
H     5.538000000    -8.518000000    -1.011000000
O     7.435000000    -5.409000000     5.117000000
H     7.697000000    -4.517000000     4.890000000
H     7.593000000    -5.472000000     6.059000000
O     5.795000000    -5.934000000     2.976000000
H     4.940000000    -6.098000000     3.374000000
H     6.384000000    -5.803000000     3.719000000
