215
-1452.47173
C    -0.416000000    -2.014000000     4.505000000
H    -0.969000000    -2.811000000     4.015000000
C    -0.863000000    -0.775000000     4.694000000
C    -0.104000000     0.234000000     5.307000000
H    -0.511000000     1.226000000     5.487000000
C    -2.048000000    -0.347000000     3.832000000
O    -3.058000000    -1.334000000     3.714000000
H    -1.658000000    -0.198000000     2.814000000
O    -2.606000000     0.842000000     4.211000000
C    -2.793000000     1.792000000     3.254000000
C    -1.781000000     2.660000000     2.968000000
H    -0.892000000     2.614000000     3.591000000
C    -1.829000000     3.524000000     1.887000000
O    -0.730000000     4.358000000     1.739000000
C    -3.039000000     3.577000000     1.130000000
C    -3.273000000     4.523000000    -0.103000000
H    -4.348000000     4.603000000    -0.280000000
C    -2.452000000     4.015000000    -1.272000000
C    -3.092000000     3.098000000    -2.202000000
H    -4.148000000     2.859000000    -2.097000000
H    -2.954000000     5.546000000     0.107000000
C    -3.998000000     2.598000000     1.334000000
H    -4.929000000     2.547000000     0.775000000
C    -3.907000000     1.687000000     2.476000000
C    -4.923000000     0.530000000     2.608000000
H    -5.925000000     0.790000000     2.260000000
H    -5.009000000     0.392000000     3.688000000
C    -4.489000000    -0.719000000     1.881000000
C    -4.870000000    -0.970000000     0.529000000
H    -5.428000000    -0.186000000     0.024000000
C    -3.627000000    -1.658000000     2.475000000
C    -3.142000000    -2.784000000     1.814000000
H    -2.476000000    -3.465000000     2.336000000
C    -3.631000000    -3.049000000     0.500000000
O    -3.077000000    -4.090000000    -0.161000000
C    -1.975000000    -3.771000000    -1.020000000
C    -0.886000000    -4.888000000    -1.004000000
C     0.029000000    -4.992000000    -2.032000000
H     0.011000000    -4.308000000    -2.877000000
C    -0.679000000    -5.621000000     0.162000000
H    -1.307000000    -5.566000000     1.049000000
O    -2.446000000    -3.703000000    -2.381000000
H    -1.544000000    -2.790000000    -0.772000000
C    -4.386000000    -2.086000000    -0.165000000
C    -4.873000000    -2.337000000    -1.647000000
H    -5.858000000    -1.876000000    -1.750000000
H    -4.931000000    -3.377000000    -1.974000000
C    -3.877000000    -1.775000000    -2.691000000
C    -3.934000000    -0.410000000    -3.024000000
H    -4.776000000     0.142000000    -2.617000000
C    -2.685000000    -2.433000000    -2.926000000
C    -1.656000000    -1.894000000    -3.669000000
H    -0.745000000    -2.437000000    -3.911000000
C    -1.770000000    -0.610000000    -4.112000000
O    -0.750000000     0.009000000    -4.799000000
C     0.152000000     1.004000000    -4.207000000
C     1.588000000     0.772000000    -4.673000000
C     2.017000000    -0.544000000    -4.992000000
H     1.331000000    -1.388000000    -4.977000000
C     2.466000000     1.781000000    -4.472000000
H     2.149000000     2.780000000    -4.185000000
O    -0.258000000     2.381000000    -4.408000000
H     0.139000000     0.753000000    -3.136000000
C    -2.909000000     0.152000000    -3.787000000
C    -3.116000000     1.614000000    -4.287000000
H    -4.177000000     1.859000000    -4.200000000
H    -2.877000000     1.756000000    -5.343000000
C    -2.424000000     2.563000000    -3.307000000
C    -1.060000000     2.859000000    -3.435000000
C    -0.411000000     3.630000000    -2.540000000
H     0.670000000     3.733000000    -2.590000000
C    -1.053000000     4.175000000    -1.421000000
O    -0.275000000     4.813000000    -0.530000000
C     0.099000000     4.044000000     0.614000000
H    -0.026000000     2.976000000     0.382000000
C     1.621000000     4.246000000     1.059000000
C     1.929000000     4.069000000     2.415000000
H     1.144000000     3.773000000     3.106000000
C     2.659000000     4.294000000     0.141000000
H     2.413000000     4.329000000    -0.918000000
C     3.955000000     4.384000000     0.602000000
O     5.077000000     4.483000000    -0.288000000
C     4.236000000     4.416000000     1.948000000
H     5.264000000     4.656000000     2.207000000
C     3.193000000     4.264000000     2.848000000
O     3.495000000     4.349000000     4.169000000
C     2.674000000     3.866000000     5.130000000
C     2.538000000     2.510000000     5.384000000
H     3.001000000     1.831000000     4.673000000
C     2.141000000     4.775000000     6.032000000
H     2.206000000     5.840000000     5.826000000
C     1.298000000     4.328000000     7.077000000
H     0.629000000     5.022000000     7.579000000
C     1.189000000     2.964000000     7.304000000
H     0.520000000     2.507000000     8.029000000
C     1.822000000     2.006000000     6.478000000
O     1.728000000     0.665000000     6.793000000
C     1.094000000    -0.129000000     5.903000000
C     1.539000000    -1.463000000     5.826000000
H     2.460000000    -1.745000000     6.330000000
C     0.820000000    -2.331000000     5.044000000
O     1.336000000    -3.584000000     4.819000000
C     0.607000000    -4.707000000     4.339000000
C     0.842000000    -5.239000000     3.111000000
H     1.600000000    -4.755000000     2.500000000
C    -0.339000000    -5.293000000     5.168000000
H    -0.577000000    -4.725000000     6.064000000
C    -1.107000000    -6.378000000     4.742000000
H    -1.982000000    -6.702000000     5.301000000
C    -0.738000000    -7.044000000     3.535000000
H    -1.226000000    -7.927000000     3.130000000
C     0.253000000    -6.484000000     2.738000000
O     0.637000000    -6.976000000     1.505000000
C     0.511000000    -6.367000000     0.324000000
C     1.468000000    -6.473000000    -0.688000000
H     2.400000000    -7.018000000    -0.560000000
C     1.171000000    -5.807000000    -1.881000000
O     2.116000000    -5.895000000    -2.872000000
C     2.174000000    -5.086000000    -3.988000000
C     3.143000000    -4.067000000    -4.104000000
H     3.717000000    -3.731000000    -3.244000000
C     1.355000000    -5.452000000    -5.109000000
H     0.665000000    -6.292000000    -5.091000000
C     1.361000000    -4.669000000    -6.215000000
H     0.708000000    -4.949000000    -7.037000000
C     2.249000000    -3.565000000    -6.269000000
H     2.267000000    -2.945000000    -7.162000000
C     3.082000000    -3.278000000    -5.229000000
O     3.858000000    -2.078000000    -5.287000000
C     3.362000000    -0.812000000    -5.116000000
C     4.220000000     0.264000000    -5.092000000
H     5.266000000     0.067000000    -5.316000000
C     3.770000000     1.518000000    -4.721000000
O     4.780000000     2.441000000    -4.596000000
C     4.829000000     3.599000000    -3.775000000
C     4.512000000     4.845000000    -4.294000000
H     4.388000000     4.983000000    -5.365000000
C     4.366000000     5.981000000    -3.523000000
H     4.117000000     6.916000000    -4.017000000
C     4.580000000     5.905000000    -2.166000000
H     4.485000000     6.745000000    -1.483000000
C     4.961000000     4.655000000    -1.662000000
C     5.025000000     3.432000000    -2.389000000
H     5.201000000     2.471000000    -1.912000000
C     2.162000000    -1.904000000    -0.391000000
H     2.649000000    -2.576000000    -1.093000000
C     1.171000000    -1.076000000    -0.880000000
H     0.969000000    -1.117000000    -1.948000000
C     0.529000000    -0.166000000    -0.042000000
H    -0.203000000     0.594000000    -0.457000000
C     0.745000000    -0.166000000     1.335000000
H     0.153000000     0.522000000     1.934000000
C     1.706000000    -1.077000000     1.844000000
H     1.962000000    -1.038000000     2.899000000
C     2.537000000    -1.831000000     0.951000000
C     3.628000000    -2.683000000     1.508000000
O     3.747000000    -2.777000000     2.685000000
O     4.542000000    -3.114000000     0.824000000
O     5.182000000    -1.050000000    -0.998000000
H     4.899000000    -1.815000000    -0.497000000
H     4.853000000    -0.302000000    -0.499000000
O     6.464000000     0.493000000     1.363000000
H     7.345000000     0.490000000     1.739000000
H     5.883000000     0.370000000     2.114000000
O     8.022000000    -3.648000000    -2.194000000
H     7.890000000    -3.556000000    -3.138000000
H     7.824000000    -2.782000000    -1.839000000
O     8.691000000    -1.990000000     5.451000000
H     8.024000000    -2.260000000     6.082000000
H     8.283000000    -1.276000000     4.961000000
O     4.396000000    -0.087000000     3.368000000
H     3.706000000     0.252000000     2.798000000
H     4.120000000    -0.980000000     3.573000000
O     7.788000000     1.775000000    -0.882000000
H     7.175000000     1.632000000    -1.603000000
H     7.518000000     1.148000000    -0.211000000
O     2.477000000    -9.093000000     1.165000000
H     3.307000000    -8.934000000     1.614000000
H     1.967000000    -8.297000000     1.316000000
O     7.989000000    -1.847000000     0.046000000
H     7.988000000    -2.347000000     0.863000000
H     7.140000000    -1.406000000     0.034000000
O     7.178000000    -3.282000000     2.282000000
H     6.891000000    -3.209000000     3.192000000
H     6.366000000    -3.352000000     1.779000000
O     2.916000000    -6.011000000     6.015000000
H     3.257000000    -5.642000000     5.200000000
H     3.624000000    -5.891000000     6.647000000
O     4.734000000    -5.883000000     0.628000000
H     4.756000000    -5.799000000     1.581000000
H     4.709000000    -4.981000000     0.309000000
O     4.600000000    -4.994000000     3.900000000
H     5.512000000    -4.724000000     4.010000000
H     4.203000000    -4.293000000     3.384000000
O     6.872000000    -0.124000000     4.673000000
H     5.964000000    -0.175000000     4.374000000
H     7.167000000     0.743000000     4.396000000
O     3.575000000     1.014000000     0.055000000
H     3.502000000     1.828000000     0.553000000
H     2.783000000     0.525000000     0.277000000
O     5.405000000    -5.671000000    -2.387000000
H     5.570000000    -6.260000000    -1.651000000
H     6.029000000    -4.955000000    -2.265000000
O     7.217000000    -4.681000000     4.638000000
H     7.972000000    -4.108000000     4.770000000
H     7.589000000    -5.489000000     4.283000000
O     5.345000000    -7.923000000    -0.728000000
H     5.144000000    -7.125000000    -0.238000000
H     5.672000000    -8.533000000    -0.067000000
O     8.950000000    -5.286000000     1.733000000
H     8.435000000    -4.543000000     2.047000000
H     9.737000000    -5.280000000     2.278000000
O     6.525000000    -1.134000000    -3.438000000
H     5.716000000    -1.096000000    -3.949000000
H     6.237000000    -1.061000000    -2.528000000
