215
-1492.25277
C    -0.989000000    -2.254000000     5.025000000
H    -1.510000000    -2.991000000     4.420000000
C    -1.290000000    -0.874000000     4.910000000
C    -0.505000000     0.076000000     5.652000000
H    -0.582000000     1.147000000     5.480000000
C    -2.316000000    -0.413000000     3.862000000
O    -3.381000000    -1.395000000     3.641000000
H    -1.685000000    -0.207000000     2.985000000
O    -2.881000000     0.853000000     4.162000000
C    -3.126000000     1.705000000     3.079000000
C    -2.242000000     2.716000000     2.937000000
H    -1.365000000     2.764000000     3.578000000
C    -2.370000000     3.678000000     1.924000000
O    -1.247000000     4.514000000     1.901000000
C    -3.355000000     3.538000000     1.034000000
C    -3.443000000     4.605000000    -0.020000000
H    -4.466000000     4.777000000    -0.362000000
C    -2.673000000     4.137000000    -1.280000000
C    -3.197000000     3.276000000    -2.287000000
H    -4.222000000     2.917000000    -2.252000000
H    -3.090000000     5.548000000     0.403000000
C    -4.291000000     2.459000000     1.136000000
H    -5.099000000     2.463000000     0.409000000
C    -4.220000000     1.554000000     2.166000000
C    -5.246000000     0.461000000     2.288000000
H    -6.199000000     0.708000000     1.817000000
H    -5.452000000     0.397000000     3.359000000
C    -4.610000000    -0.789000000     1.676000000
C    -4.985000000    -1.080000000     0.350000000
H    -5.633000000    -0.430000000    -0.233000000
C    -3.779000000    -1.636000000     2.373000000
C    -3.168000000    -2.644000000     1.644000000
H    -2.401000000    -3.265000000     2.102000000
C    -3.469000000    -2.971000000     0.328000000
O    -2.700000000    -3.937000000    -0.221000000
C    -1.812000000    -3.456000000    -1.318000000
C    -0.490000000    -4.219000000    -1.143000000
C     0.207000000    -4.610000000    -2.282000000
H    -0.191000000    -4.450000000    -3.281000000
C    -0.042000000    -4.449000000     0.178000000
H    -0.650000000    -4.161000000     1.032000000
O    -2.369000000    -3.575000000    -2.601000000
H    -1.577000000    -2.395000000    -1.151000000
C    -4.387000000    -2.161000000    -0.377000000
C    -4.796000000    -2.348000000    -1.908000000
H    -5.759000000    -1.981000000    -2.270000000
H    -4.862000000    -3.419000000    -2.112000000
C    -3.789000000    -1.687000000    -2.806000000
C    -3.919000000    -0.378000000    -3.186000000
H    -4.843000000     0.138000000    -2.935000000
C    -2.600000000    -2.347000000    -3.189000000
C    -1.670000000    -1.690000000    -3.958000000
H    -0.737000000    -2.206000000    -4.167000000
C    -1.815000000    -0.356000000    -4.280000000
O    -0.754000000     0.231000000    -4.845000000
C     0.101000000     0.966000000    -3.904000000
C     1.545000000     0.716000000    -4.177000000
C     1.905000000    -0.493000000    -4.839000000
H     1.151000000    -1.118000000    -5.311000000
C     2.579000000     1.525000000    -3.727000000
H     2.291000000     2.419000000    -3.180000000
O    -0.062000000     2.414000000    -4.119000000
H    -0.161000000     0.766000000    -2.854000000
C    -2.961000000     0.304000000    -3.955000000
C    -3.058000000     1.785000000    -4.248000000
H    -4.110000000     2.075000000    -4.297000000
H    -2.622000000     1.989000000    -5.228000000
C    -2.391000000     2.744000000    -3.289000000
C    -1.038000000     3.081000000    -3.320000000
C    -0.521000000     3.965000000    -2.328000000
H     0.557000000     4.102000000    -2.316000000
C    -1.312000000     4.434000000    -1.327000000
O    -0.691000000     5.090000000    -0.294000000
C    -0.299000000     4.217000000     0.787000000
H    -0.416000000     3.174000000     0.457000000
C     1.168000000     4.398000000     1.204000000
C     1.660000000     3.650000000     2.283000000
H     0.923000000     3.078000000     2.841000000
C     2.082000000     5.029000000     0.344000000
H     1.743000000     5.472000000    -0.589000000
C     3.477000000     5.031000000     0.613000000
O     4.461000000     5.578000000    -0.217000000
C     3.893000000     4.294000000     1.696000000
H     4.962000000     4.166000000     1.850000000
C     2.988000000     3.659000000     2.522000000
O     3.510000000     3.005000000     3.617000000
C     2.843000000     2.920000000     4.849000000
C     2.336000000     1.776000000     5.368000000
H     2.233000000     0.882000000     4.760000000
C     2.700000000     4.105000000     5.562000000
H     3.045000000     5.028000000     5.103000000
C     2.143000000     4.124000000     6.817000000
H     2.083000000     5.070000000     7.349000000
C     1.667000000     2.950000000     7.376000000
H     1.261000000     2.951000000     8.384000000
C     1.750000000     1.797000000     6.617000000
O     1.377000000     0.564000000     7.178000000
C     0.485000000    -0.387000000     6.553000000
C     0.670000000    -1.747000000     6.684000000
H     1.359000000    -2.102000000     7.446000000
C    -0.030000000    -2.670000000     5.932000000
O     0.262000000    -3.986000000     6.071000000
C     0.376000000    -4.850000000     5.032000000
C     0.875000000    -4.540000000     3.796000000
H     1.164000000    -3.503000000     3.645000000
C    -0.148000000    -6.121000000     5.220000000
H    -0.570000000    -6.378000000     6.187000000
C    -0.214000000    -7.022000000     4.157000000
H    -0.692000000    -7.975000000     4.369000000
C     0.564000000    -6.741000000     2.987000000
H     0.706000000    -7.572000000     2.300000000
C     1.080000000    -5.496000000     2.777000000
O     1.719000000    -5.180000000     1.638000000
C     1.155000000    -5.115000000     0.349000000
C     1.904000000    -5.547000000    -0.742000000
H     2.861000000    -6.044000000    -0.609000000
C     1.382000000    -5.281000000    -2.033000000
O     2.130000000    -5.840000000    -3.077000000
C     2.348000000    -5.222000000    -4.277000000
C     2.636000000    -3.841000000    -4.344000000
H     2.794000000    -3.295000000    -3.417000000
C     2.266000000    -5.997000000    -5.421000000
H     2.006000000    -7.049000000    -5.329000000
C     2.370000000    -5.390000000    -6.660000000
H     2.058000000    -5.944000000    -7.541000000
C     2.734000000    -3.987000000    -6.701000000
H     2.930000000    -3.530000000    -7.667000000
C     2.877000000    -3.210000000    -5.584000000
O     3.567000000    -2.014000000    -5.666000000
C     3.198000000    -0.826000000    -5.029000000
C     4.211000000     0.057000000    -4.550000000
H     5.251000000    -0.233000000    -4.674000000
C     3.904000000     1.178000000    -3.877000000
O     4.911000000     1.957000000    -3.399000000
C     4.778000000     3.301000000    -3.070000000
C     4.710000000     4.153000000    -4.153000000
H     4.683000000     3.724000000    -5.152000000
C     4.499000000     5.482000000    -3.869000000
H     4.392000000     6.173000000    -4.701000000
C     4.524000000     6.002000000    -2.579000000
H     4.467000000     7.060000000    -2.334000000
C     4.572000000     5.122000000    -1.503000000
C     4.727000000     3.757000000    -1.760000000
H     4.818000000     3.071000000    -0.921000000
C     1.856000000     0.928000000     0.456000000
H     2.699000000     1.613000000     0.417000000
C     0.820000000     1.174000000    -0.435000000
H     0.978000000     1.900000000    -1.228000000
C    -0.413000000     0.475000000    -0.304000000
H    -1.216000000     0.578000000    -1.049000000
C    -0.526000000    -0.533000000     0.660000000
H    -1.420000000    -1.148000000     0.708000000
C     0.541000000    -0.862000000     1.476000000
H     0.444000000    -1.701000000     2.159000000
C     1.751000000    -0.094000000     1.362000000
C     2.856000000    -0.338000000     2.415000000
O     2.725000000    -1.156000000     3.314000000
O     3.923000000     0.121000000     2.173000000
O     5.666000000    -1.393000000     0.707000000
H     5.096000000    -0.823000000     1.223000000
H     6.196000000    -1.854000000     1.358000000
O     3.637000000    -1.144000000     8.196000000
H     2.998000000    -0.431000000     8.173000000
H     3.914000000    -1.246000000     7.285000000
O     4.182000000    -1.719000000     5.570000000
H     3.529000000    -1.461000000     4.918000000
H     4.606000000    -2.490000000     5.192000000
O     6.052000000     0.064000000     6.274000000
H     5.667000000    -0.808000000     6.187000000
H     6.301000000     0.306000000     5.382000000
O     2.263000000    -2.031000000    -0.936000000
H     1.557000000    -2.658000000    -0.784000000
H     1.966000000    -1.227000000    -0.510000000
O     7.597000000    -2.243000000     2.256000000
H     7.186000000    -1.781000000     2.987000000
H     8.481000000    -2.440000000     2.563000000
O     6.172000000     0.160000000     3.374000000
H     6.651000000     0.686000000     2.733000000
H     5.250000000     0.303000000     3.160000000
O     5.893000000     1.721000000     1.055000000
H     6.195000000     1.440000000     0.191000000
H     5.237000000     1.070000000     1.303000000
O     3.904000000    -6.151000000     4.451000000
H     3.901000000    -5.462000000     3.787000000
H     3.725000000    -5.692000000     5.272000000
O     4.236000000    -3.747000000     0.648000000
H     4.649000000    -2.886000000     0.581000000
H     3.706000000    -3.821000000    -0.146000000
O     7.407000000     1.268000000    -1.969000000
H     6.586000000     1.455000000    -2.424000000
H     7.896000000     0.713000000    -2.576000000
O     5.083000000    -2.530000000    -2.464000000
H     4.578000000    -2.016000000    -1.833000000
H     4.687000000    -2.326000000    -3.311000000
O     3.845000000    -3.517000000     3.232000000
H     3.532000000    -2.621000000     3.355000000
H     3.746000000    -3.679000000     2.293000000
O     8.980000000     1.405000000     2.133000000
H     9.757000000     0.900000000     1.891000000
H     8.725000000     1.853000000     1.327000000
O     6.278000000     4.071000000     4.451000000
H     5.793000000     3.440000000     3.919000000
H     6.132000000     3.786000000     5.353000000
O     6.244000000    -3.517000000     4.826000000
H     6.424000000    -4.263000000     5.397000000
H     5.522000000    -3.810000000     4.270000000
O     8.499000000    -1.269000000    -0.423000000
H     7.654000000    -0.964000000    -0.753000000
H     8.324000000    -1.526000000     0.482000000
O     6.875000000    -4.878000000     1.576000000
H     7.375000000    -4.144000000     1.933000000
H     6.118000000    -4.470000000     1.155000000
O     9.024000000     0.666000000     4.794000000
H     8.153000000     0.431000000     5.112000000
H     8.910000000     0.790000000     3.852000000
