215
-1474.88476
C    -0.105000000    -2.327000000     4.592000000
H    -0.654000000    -3.137000000     4.118000000
C    -0.642000000    -1.065000000     4.543000000
C     0.110000000    -0.054000000     5.170000000
H    -0.279000000     0.957000000     5.076000000
C    -1.861000000    -0.699000000     3.727000000
O    -2.769000000    -1.808000000     3.717000000
H    -1.538000000    -0.608000000     2.679000000
O    -2.517000000     0.489000000     4.192000000
C    -3.051000000     1.415000000     3.198000000
C    -2.322000000     2.619000000     3.011000000
H    -1.498000000     2.808000000     3.694000000
C    -2.731000000     3.458000000     2.008000000
O    -1.863000000     4.498000000     1.734000000
C    -3.815000000     3.178000000     1.225000000
C    -4.116000000     4.004000000    -0.043000000
H    -5.169000000     3.842000000    -0.282000000
C    -3.208000000     3.657000000    -1.208000000
C    -3.667000000     2.755000000    -2.212000000
H    -4.715000000     2.470000000    -2.198000000
H    -4.060000000     5.076000000     0.160000000
C    -4.507000000     1.959000000     1.309000000
H    -5.292000000     1.694000000     0.605000000
C    -4.108000000     1.086000000     2.328000000
C    -4.912000000    -0.184000000     2.567000000
H    -5.968000000    -0.051000000     2.320000000
H    -4.971000000    -0.491000000     3.613000000
C    -4.296000000    -1.371000000     1.821000000
C    -4.669000000    -1.797000000     0.564000000
H    -5.468000000    -1.276000000     0.042000000
C    -3.292000000    -2.090000000     2.461000000
C    -2.667000000    -3.134000000     1.793000000
H    -1.941000000    -3.700000000     2.372000000
C    -2.919000000    -3.481000000     0.456000000
O    -2.098000000    -4.385000000    -0.141000000
C    -1.216000000    -3.907000000    -1.128000000
C     0.078000000    -4.725000000    -1.200000000
C     0.721000000    -4.990000000    -2.390000000
H     0.313000000    -4.624000000    -3.329000000
C     0.576000000    -5.197000000     0.030000000
H     0.040000000    -4.913000000     0.932000000
O    -1.957000000    -3.942000000    -2.343000000
H    -0.897000000    -2.875000000    -0.918000000
C    -4.031000000    -2.769000000    -0.143000000
C    -4.502000000    -3.032000000    -1.549000000
H    -5.547000000    -2.760000000    -1.716000000
H    -4.417000000    -4.095000000    -1.788000000
C    -3.684000000    -2.248000000    -2.658000000
C    -4.038000000    -0.996000000    -3.123000000
H    -5.012000000    -0.556000000    -2.924000000
C    -2.413000000    -2.788000000    -2.967000000
C    -1.496000000    -2.032000000    -3.693000000
H    -0.507000000    -2.440000000    -3.884000000
C    -1.845000000    -0.784000000    -4.100000000
O    -0.755000000    -0.148000000    -4.665000000
C     0.030000000     0.942000000    -3.982000000
C     1.481000000     0.952000000    -4.427000000
C     2.229000000    -0.258000000    -4.381000000
H     1.745000000    -1.221000000    -4.240000000
C     2.166000000     2.166000000    -4.506000000
H     1.597000000     3.089000000    -4.576000000
O    -0.618000000     2.248000000    -4.324000000
H     0.059000000     0.793000000    -2.892000000
C    -3.097000000    -0.230000000    -3.910000000
C    -3.453000000     1.258000000    -4.298000000
H    -4.501000000     1.466000000    -4.523000000
H    -2.971000000     1.424000000    -5.264000000
C    -2.867000000     2.298000000    -3.288000000
C    -1.500000000     2.786000000    -3.377000000
C    -1.123000000     3.758000000    -2.455000000
H    -0.183000000     4.236000000    -2.721000000
C    -1.879000000     4.190000000    -1.391000000
O    -1.254000000     4.959000000    -0.446000000
C    -0.904000000     4.212000000     0.716000000
H    -0.889000000     3.133000000     0.505000000
C     0.441000000     4.629000000     1.232000000
C     0.764000000     4.611000000     2.616000000
H     0.067000000     4.310000000     3.395000000
C     1.485000000     4.892000000     0.331000000
H     1.273000000     4.933000000    -0.734000000
C     2.820000000     4.988000000     0.674000000
O     3.860000000     5.195000000    -0.221000000
C     3.132000000     5.094000000     2.003000000
H     4.171000000     5.260000000     2.276000000
C     2.100000000     4.878000000     2.983000000
O     2.647000000     4.747000000     4.247000000
C     1.941000000     4.128000000     5.247000000
C     2.121000000     2.737000000     5.363000000
H     2.674000000     2.094000000     4.684000000
C     1.196000000     4.800000000     6.190000000
H     1.017000000     5.863000000     6.048000000
C     0.546000000     4.102000000     7.225000000
H    -0.077000000     4.571000000     7.983000000
C     0.727000000     2.751000000     7.363000000
H     0.141000000     2.208000000     8.100000000
C     1.545000000     2.045000000     6.424000000
O     1.928000000     0.738000000     6.586000000
C     1.193000000    -0.308000000     5.964000000
C     1.766000000    -1.569000000     5.916000000
H     2.642000000    -1.816000000     6.511000000
C     1.177000000    -2.572000000     5.180000000
O     1.843000000    -3.766000000     5.176000000
C     1.448000000    -4.950000000     4.542000000
C     1.846000000    -5.054000000     3.229000000
H     2.506000000    -4.324000000     2.766000000
C     0.874000000    -6.028000000     5.216000000
H     0.646000000    -6.054000000     6.279000000
C     0.716000000    -7.248000000     4.484000000
H     0.285000000    -8.110000000     4.987000000
C     1.119000000    -7.359000000     3.173000000
H     1.104000000    -8.303000000     2.635000000
C     1.589000000    -6.212000000     2.506000000
O     2.233000000    -6.345000000     1.281000000
C     1.726000000    -5.975000000     0.102000000
C     2.441000000    -6.216000000    -1.093000000
H     3.323000000    -6.851000000    -1.098000000
C     1.935000000    -5.653000000    -2.333000000
O     2.727000000    -5.835000000    -3.490000000
C     3.068000000    -4.830000000    -4.318000000
C     3.659000000    -3.623000000    -3.892000000
H     3.931000000    -3.464000000    -2.851000000
C     2.779000000    -4.992000000    -5.705000000
H     2.401000000    -5.943000000    -6.070000000
C     3.164000000    -3.984000000    -6.561000000
H     3.035000000    -3.946000000    -7.639000000
C     3.657000000    -2.758000000    -6.142000000
H     3.775000000    -1.954000000    -6.864000000
C     3.880000000    -2.625000000    -4.800000000
O     4.256000000    -1.427000000    -4.256000000
C     3.593000000    -0.240000000    -4.487000000
C     4.290000000     0.903000000    -4.849000000
H     5.369000000     0.926000000    -4.974000000
C     3.552000000     2.147000000    -4.744000000
O     4.177000000     3.390000000    -4.706000000
C     3.825000000     4.418000000    -3.841000000
C     3.318000000     5.576000000    -4.384000000
H     3.148000000     5.644000000    -5.455000000
C     2.993000000     6.621000000    -3.517000000
H     2.590000000     7.524000000    -3.968000000
C     3.064000000     6.521000000    -2.147000000
H     2.780000000     7.343000000    -1.496000000
C     3.632000000     5.344000000    -1.570000000
C     4.012000000     4.308000000    -2.410000000
H     4.447000000     3.404000000    -1.990000000
C     1.973000000     0.620000000     0.650000000
H     2.338000000     1.625000000     0.458000000
C     0.825000000     0.316000000    -0.077000000
H     0.515000000     0.989000000    -0.872000000
C    -0.018000000    -0.747000000     0.295000000
H    -0.957000000    -1.051000000    -0.092000000
C     0.397000000    -1.575000000     1.311000000
H    -0.220000000    -2.417000000     1.613000000
C     1.643000000    -1.359000000     1.893000000
H     2.031000000    -1.924000000     2.737000000
C     2.434000000    -0.250000000     1.597000000
C     3.751000000     0.011000000     2.394000000
O     4.314000000    -1.023000000     2.843000000
O     4.315000000     1.032000000     2.345000000
O     5.448000000     0.822000000    -2.095000000
H     5.107000000    -0.028000000    -1.817000000
H     5.702000000     1.256000000    -1.281000000
O     4.804000000     3.068000000     7.494000000
H     4.088000000     3.424000000     6.967000000
H     4.759000000     3.553000000     8.318000000
O     5.099000000    -4.625000000     6.041000000
H     5.582000000    -4.462000000     6.851000000
H     4.638000000    -3.804000000     5.867000000
O     4.670000000    -1.890000000     5.362000000
H     4.491000000    -1.645000000     4.454000000
H     4.811000000    -1.056000000     5.812000000
O     5.365000000     0.810000000     6.210000000
H     5.527000000     1.272000000     5.387000000
H     5.109000000     1.498000000     6.824000000
O     3.114000000    -2.736000000    -0.576000000
H     3.111000000    -2.204000000     0.220000000
H     2.190000000    -2.819000000    -0.812000000
O     8.341000000     2.031000000     1.800000000
H     9.143000000     2.378000000     1.407000000
H     8.171000000     2.609000000     2.543000000
O     6.079000000     2.266000000     3.764000000
H     5.582000000     3.068000000     3.600000000
H     5.762000000     1.649000000     3.105000000
O     6.054000000     1.637000000     0.354000000
H     6.894000000     1.677000000     0.812000000
H     5.416000000     1.441000000     1.041000000
O     7.078000000    -1.166000000     2.294000000
H     7.025000000    -2.120000000     2.363000000
H     6.194000000    -0.862000000     2.498000000
O     6.025000000    -2.936000000    -0.535000000
H     6.642000000    -2.326000000    -0.938000000
H     5.212000000    -2.814000000    -1.025000000
O     7.513000000    -0.342000000     7.534000000
H     6.722000000    -0.008000000     7.110000000
H     8.232000000     0.098000000     7.081000000
O     4.705000000    -3.800000000     2.011000000
H     4.532000000    -3.005000000     2.514000000
H     5.093000000    -3.487000000     1.194000000
O     9.363000000    -1.186000000     0.852000000
H     9.231000000    -0.826000000    -0.025000000
H     8.516000000    -1.080000000     1.285000000
O     5.133000000    -6.123000000     3.686000000
H     5.183000000    -5.870000000     4.607000000
H     5.028000000    -5.296000000     3.216000000
O     7.787000000     0.232000000     4.386000000
H     7.386000000     1.101000000     4.382000000
H     7.565000000    -0.138000000     3.532000000
O     7.686000000     2.938000000     6.295000000
H     7.080000000     3.088000000     5.570000000
H     7.129000000     2.647000000     7.017000000
O     7.134000000     4.050000000    -0.737000000
H     6.524000000     3.321000000    -0.625000000
H     6.724000000     4.779000000    -0.273000000
O     7.356000000    -3.160000000     4.367000000
H     6.781000000    -2.813000000     5.049000000
H     6.949000000    -3.987000000     4.109000000
