215
-1448.21922
C     0.342000000    -2.189000000     4.682000000
H     0.014000000    -2.872000000     3.902000000
C    -0.386000000    -0.998000000     4.749000000
C     0.101000000    -0.002000000     5.604000000
H    -0.363000000     0.980000000     5.639000000
C    -1.615000000    -0.777000000     3.939000000
O    -2.426000000    -1.991000000     3.832000000
H    -1.253000000    -0.500000000     2.937000000
O    -2.447000000     0.246000000     4.449000000
C    -2.864000000     1.084000000     3.539000000
C    -2.125000000     2.232000000     3.396000000
H    -1.251000000     2.385000000     4.024000000
C    -2.362000000     3.051000000     2.274000000
O    -1.482000000     4.087000000     2.099000000
C    -3.459000000     2.774000000     1.443000000
C    -3.852000000     3.632000000     0.245000000
H    -4.933000000     3.533000000     0.128000000
C    -3.114000000     3.282000000    -0.994000000
C    -3.725000000     2.505000000    -1.934000000
H    -4.685000000     2.047000000    -1.710000000
H    -3.548000000     4.657000000     0.468000000
C    -4.292000000     1.687000000     1.668000000
H    -5.243000000     1.544000000     1.161000000
C    -3.972000000     0.815000000     2.743000000
C    -4.709000000    -0.396000000     3.001000000
H    -5.776000000    -0.304000000     2.789000000
H    -4.655000000    -0.496000000     4.087000000
C    -4.132000000    -1.575000000     2.203000000
C    -4.526000000    -1.783000000     0.898000000
H    -5.322000000    -1.255000000     0.378000000
C    -3.082000000    -2.341000000     2.679000000
C    -2.569000000    -3.393000000     1.977000000
H    -1.846000000    -4.027000000     2.483000000
C    -2.957000000    -3.645000000     0.691000000
O    -2.264000000    -4.578000000    -0.056000000
C    -1.474000000    -3.994000000    -1.165000000
C    -0.078000000    -4.662000000    -1.254000000
C     0.730000000    -4.670000000    -2.358000000
H     0.352000000    -4.291000000    -3.304000000
C     0.499000000    -5.137000000    -0.049000000
H    -0.019000000    -5.095000000     0.906000000
O    -2.171000000    -4.035000000    -2.426000000
H    -1.188000000    -2.972000000    -0.878000000
C    -3.897000000    -2.762000000     0.079000000
C    -4.484000000    -2.880000000    -1.348000000
H    -5.542000000    -2.613000000    -1.308000000
H    -4.513000000    -3.939000000    -1.611000000
C    -3.737000000    -2.137000000    -2.459000000
C    -4.143000000    -0.869000000    -2.979000000
H    -5.035000000    -0.365000000    -2.618000000
C    -2.549000000    -2.777000000    -2.837000000
C    -1.758000000    -2.042000000    -3.687000000
H    -0.896000000    -2.560000000    -4.099000000
C    -2.067000000    -0.794000000    -4.139000000
O    -1.220000000    -0.005000000    -4.918000000
C    -0.447000000     0.990000000    -4.169000000
C     0.973000000     0.885000000    -4.634000000
C     1.564000000    -0.266000000    -5.193000000
H     0.951000000    -1.147000000    -5.360000000
C     1.815000000     1.943000000    -4.318000000
H     1.449000000     2.866000000    -3.875000000
O    -1.001000000     2.321000000    -4.345000000
H    -0.440000000     0.778000000    -3.090000000
C    -3.304000000    -0.132000000    -3.808000000
C    -3.675000000     1.301000000    -4.240000000
H    -4.739000000     1.514000000    -4.357000000
H    -3.221000000     1.425000000    -5.225000000
C    -3.080000000     2.239000000    -3.175000000
C    -1.810000000     2.786000000    -3.347000000
C    -1.203000000     3.575000000    -2.378000000
H    -0.220000000     3.997000000    -2.571000000
C    -1.830000000     3.787000000    -1.211000000
O    -1.038000000     4.522000000    -0.279000000
C    -0.500000000     4.051000000     0.967000000
H    -0.098000000     3.039000000     0.813000000
C     0.810000000     4.629000000     1.329000000
C     1.367000000     4.432000000     2.568000000
H     0.782000000     3.911000000     3.322000000
C     1.662000000     5.059000000     0.311000000
H     1.217000000     5.132000000    -0.677000000
C     3.026000000     5.287000000     0.556000000
O     3.947000000     5.411000000    -0.465000000
C     3.511000000     5.306000000     1.853000000
H     4.506000000     5.597000000     2.180000000
C     2.769000000     4.793000000     2.881000000
O     3.246000000     4.637000000     4.176000000
C     2.611000000     4.064000000     5.252000000
C     2.445000000     2.653000000     5.424000000
H     2.790000000     1.999000000     4.626000000
C     2.085000000     4.903000000     6.217000000
H     2.112000000     5.973000000     6.025000000
C     1.599000000     4.388000000     7.444000000
H     1.184000000     5.117000000     8.135000000
C     1.543000000     3.034000000     7.682000000
H     1.042000000     2.656000000     8.570000000
C     1.968000000     2.151000000     6.642000000
O     1.956000000     0.798000000     7.018000000
C     1.379000000    -0.172000000     6.265000000
C     2.062000000    -1.342000000     6.132000000
H     2.997000000    -1.552000000     6.646000000
C     1.550000000    -2.286000000     5.248000000
O     2.291000000    -3.404000000     5.080000000
C     1.840000000    -4.516000000     4.404000000
C     2.343000000    -4.735000000     3.142000000
H     3.070000000    -4.096000000     2.648000000
C     0.980000000    -5.350000000     5.078000000
H     0.504000000    -5.125000000     6.030000000
C     0.489000000    -6.467000000     4.371000000
H    -0.294000000    -7.103000000     4.775000000
C     0.960000000    -6.693000000     3.042000000
H     0.553000000    -7.547000000     2.508000000
C     1.850000000    -5.850000000     2.410000000
O     2.413000000    -6.122000000     1.133000000
C     1.829000000    -5.658000000    -0.046000000
C     2.581000000    -5.668000000    -1.216000000
H     3.611000000    -6.013000000    -1.219000000
C     1.998000000    -5.204000000    -2.358000000
O     2.745000000    -5.287000000    -3.501000000
C     2.487000000    -4.641000000    -4.684000000
C     2.937000000    -3.285000000    -4.780000000
H     3.316000000    -2.753000000    -3.911000000
C     2.050000000    -5.348000000    -5.835000000
H     1.844000000    -6.409000000    -5.728000000
C     2.066000000    -4.641000000    -7.112000000
H     1.696000000    -5.162000000    -7.991000000
C     2.610000000    -3.319000000    -7.193000000
H     2.497000000    -2.688000000    -8.071000000
C     2.966000000    -2.639000000    -6.007000000
O     3.457000000    -1.399000000    -6.082000000
C     2.914000000    -0.258000000    -5.508000000
C     3.786000000     0.782000000    -5.123000000
H     4.863000000     0.827000000    -5.266000000
C     3.177000000     1.888000000    -4.562000000
O     3.914000000     3.009000000    -4.578000000
C     3.513000000     4.179000000    -3.853000000
C     2.855000000     5.275000000    -4.447000000
H     2.571000000     5.279000000    -5.497000000
C     2.616000000     6.436000000    -3.711000000
H     2.170000000     7.263000000    -4.259000000
C     3.074000000     6.466000000    -2.428000000
H     2.838000000     7.354000000    -1.848000000
C     3.646000000     5.350000000    -1.834000000
C     3.799000000     4.148000000    -2.505000000
H     4.215000000     3.266000000    -2.025000000
C     1.941000000     1.167000000     0.511000000
H     2.503000000     2.089000000     0.385000000
C     0.799000000     0.944000000    -0.308000000
H     0.427000000     1.605000000    -1.086000000
C    -0.016000000    -0.147000000    -0.106000000
H    -0.882000000    -0.292000000    -0.650000000
C     0.338000000    -1.107000000     0.840000000
H    -0.321000000    -1.958000000     0.995000000
C     1.607000000    -0.978000000     1.537000000
H     1.958000000    -1.791000000     2.167000000
C     2.352000000     0.190000000     1.422000000
C     3.620000000     0.344000000     2.281000000
O     4.103000000    -0.596000000     2.920000000
O     4.091000000     1.438000000     2.330000000
O     5.188000000     1.414000000    -0.037000000
H     6.111000000     1.543000000     0.179000000
H     4.731000000     1.507000000     0.800000000
O     4.219000000     0.021000000     8.716000000
H     3.578000000     0.727000000     8.805000000
H     4.871000000     0.365000000     8.106000000
O     4.800000000    -3.408000000     6.891000000
H     5.426000000    -3.085000000     7.540000000
H     4.887000000    -2.803000000     6.153000000
O     5.283000000    -1.310000000     5.455000000
H     4.942000000    -1.078000000     4.592000000
H     5.193000000    -0.510000000     5.972000000
O     5.360000000     1.298000000     6.632000000
H     5.481000000     1.499000000     5.704000000
H     5.162000000     2.143000000     7.036000000
O     2.717000000    -1.261000000    -1.787000000
H     2.207000000    -1.580000000    -1.043000000
H     2.498000000    -0.331000000    -1.847000000
O     5.736000000     2.373000000     4.196000000
H     5.736000000     3.327000000     4.267000000
H     5.253000000     2.193000000     3.389000000
O     7.590000000     2.221000000     0.936000000
H     8.519000000     2.369000000     0.761000000
H     7.578000000     1.537000000     1.606000000
O     6.108000000     4.728000000     5.365000000
H     6.010000000     5.656000000     5.153000000
H     5.641000000     4.622000000     6.195000000
O     6.635000000    -0.273000000     2.299000000
H     6.620000000    -0.819000000     1.513000000
H     5.723000000    -0.246000000     2.589000000
O     4.674000000    -3.272000000    -0.936000000
H     4.760000000    -3.515000000    -0.014000000
H     3.800000000    -2.886000000    -1.001000000
O     6.762000000     2.134000000    -2.186000000
H     6.198000000     2.192000000    -1.415000000
H     6.624000000     1.246000000    -2.517000000
O     5.468000000    -3.332000000     2.309000000
H     5.083000000    -2.770000000     2.982000000
H     5.931000000    -2.728000000     1.728000000
O     7.501000000    -2.434000000     0.460000000
H     8.139000000    -1.768000000     0.204000000
H     7.695000000    -3.181000000    -0.107000000
O     8.679000000     1.342000000     3.593000000
H     8.514000000     2.281000000     3.681000000
H     7.813000000     0.958000000     3.459000000
O     7.029000000    -2.318000000    -2.582000000
H     6.699000000    -3.179000000    -2.838000000
H     6.374000000    -1.981000000    -1.971000000
O     8.547000000     3.858000000     4.434000000
H     8.968000000     4.632000000     4.059000000
H     7.642000000     4.130000000     4.591000000
O     6.506000000     4.948000000     0.896000000
H     6.825000000     4.052000000     1.007000000
H     5.663000000     4.848000000     0.454000000
O     7.723000000    -2.053000000     6.215000000
H     7.571000000    -2.278000000     7.132000000
H     6.864000000    -1.786000000     5.888000000
