215
-1445.57334
C    -0.830000000    -3.094000000     4.600000000
H    -1.465000000    -3.749000000     4.008000000
C    -1.062000000    -1.789000000     4.631000000
C    -0.168000000    -0.958000000     5.387000000
H    -0.389000000     0.103000000     5.472000000
C    -2.167000000    -1.148000000     3.753000000
O    -3.265000000    -2.068000000     3.534000000
H    -1.657000000    -0.868000000     2.819000000
O    -2.654000000     0.120000000     4.288000000
C    -3.032000000     1.140000000     3.489000000
C    -2.136000000     2.178000000     3.366000000
H    -1.337000000     2.238000000     4.100000000
C    -2.321000000     3.212000000     2.543000000
O    -1.287000000     4.141000000     2.411000000
C    -3.506000000     3.315000000     1.780000000
C    -3.523000000     4.408000000     0.692000000
H    -4.579000000     4.513000000     0.435000000
C    -2.760000000     4.148000000    -0.660000000
C    -3.447000000     3.507000000    -1.728000000
H    -4.470000000     3.209000000    -1.510000000
H    -3.346000000     5.365000000     1.189000000
C    -4.380000000     2.235000000     1.840000000
H    -5.359000000     2.372000000     1.388000000
C    -4.154000000     1.102000000     2.643000000
C    -5.113000000    -0.102000000     2.614000000
H    -6.094000000     0.159000000     2.209000000
H    -5.308000000    -0.517000000     3.605000000
C    -4.548000000    -1.175000000     1.702000000
C    -4.837000000    -1.254000000     0.390000000
H    -5.594000000    -0.571000000     0.013000000
C    -3.634000000    -2.129000000     2.203000000
C    -3.147000000    -3.146000000     1.377000000
H    -2.520000000    -3.884000000     1.870000000
C    -3.411000000    -3.138000000     0.013000000
O    -2.635000000    -3.953000000    -0.805000000
C    -1.659000000    -3.402000000    -1.614000000
C    -0.336000000    -4.195000000    -1.615000000
C     0.488000000    -4.364000000    -2.764000000
H     0.070000000    -4.087000000    -3.729000000
C     0.122000000    -4.694000000    -0.433000000
H    -0.507000000    -4.721000000     0.453000000
O    -2.179000000    -3.163000000    -2.921000000
H    -1.457000000    -2.414000000    -1.175000000
C    -4.328000000    -2.170000000    -0.479000000
C    -4.789000000    -2.187000000    -1.920000000
H    -5.747000000    -1.693000000    -2.092000000
H    -4.862000000    -3.214000000    -2.285000000
C    -3.781000000    -1.357000000    -2.752000000
C    -4.054000000    -0.056000000    -2.977000000
H    -4.893000000     0.462000000    -2.520000000
C    -2.535000000    -1.926000000    -3.183000000
C    -1.733000000    -1.121000000    -3.966000000
H    -0.907000000    -1.586000000    -4.498000000
C    -2.049000000     0.225000000    -4.297000000
O    -1.118000000     1.013000000    -4.938000000
C    -0.113000000     1.723000000    -4.112000000
C     1.310000000     1.584000000    -4.609000000
C     1.782000000     0.471000000    -5.275000000
H     1.115000000    -0.284000000    -5.682000000
C     2.248000000     2.405000000    -4.012000000
H     1.914000000     3.038000000    -3.194000000
O    -0.560000000     3.053000000    -3.983000000
H    -0.172000000     1.328000000    -3.087000000
C    -3.205000000     0.762000000    -3.758000000
C    -3.484000000     2.254000000    -3.890000000
H    -4.549000000     2.494000000    -3.912000000
H    -3.090000000     2.716000000    -4.797000000
C    -2.770000000     3.032000000    -2.854000000
C    -1.397000000     3.369000000    -2.958000000
C    -0.734000000     4.024000000    -1.929000000
H     0.324000000     4.231000000    -2.067000000
C    -1.411000000     4.255000000    -0.775000000
O    -0.666000000     4.795000000     0.231000000
C    -0.301000000     3.947000000     1.382000000
H    -0.346000000     2.911000000     1.015000000
C     1.136000000     4.162000000     1.887000000
C     1.691000000     3.309000000     2.931000000
H     1.007000000     2.600000000     3.390000000
C     2.019000000     4.875000000     1.067000000
H     1.688000000     5.376000000     0.161000000
C     3.401000000     4.864000000     1.284000000
O     4.291000000     5.514000000     0.433000000
C     3.919000000     4.203000000     2.386000000
H     4.996000000     4.098000000     2.488000000
C     3.076000000     3.432000000     3.239000000
O     3.653000000     2.550000000     4.201000000
C     3.003000000     2.171000000     5.344000000
C     2.476000000     0.877000000     5.473000000
H     2.550000000     0.165000000     4.655000000
C     3.183000000     3.002000000     6.455000000
H     3.677000000     3.970000000     6.418000000
C     2.719000000     2.553000000     7.680000000
H     2.773000000     3.191000000     8.559000000
C     2.120000000     1.362000000     7.838000000
H     1.707000000     1.065000000     8.799000000
C     2.006000000     0.502000000     6.744000000
O     1.671000000    -0.816000000     7.007000000
C     0.900000000    -1.533000000     6.097000000
C     1.138000000    -2.897000000     6.001000000
H     1.878000000    -3.343000000     6.661000000
C     0.220000000    -3.657000000     5.337000000
O     0.301000000    -5.034000000     5.274000000
C     0.313000000    -5.765000000     4.152000000
C     1.081000000    -5.294000000     3.092000000
H     1.624000000    -4.353000000     3.142000000
C    -0.342000000    -6.989000000     4.093000000
H    -0.816000000    -7.365000000     4.996000000
C    -0.321000000    -7.678000000     2.896000000
H    -0.902000000    -8.580000000     2.720000000
C     0.419000000    -7.190000000     1.770000000
H     0.453000000    -7.718000000     0.820000000
C     1.113000000    -5.969000000     1.895000000
O     1.892000000    -5.556000000     0.924000000
C     1.422000000    -5.219000000    -0.301000000
C     2.301000000    -5.128000000    -1.421000000
H     3.343000000    -5.414000000    -1.300000000
C     1.828000000    -4.770000000    -2.650000000
O     2.762000000    -4.615000000    -3.669000000
C     2.513000000    -3.960000000    -4.818000000
C     3.019000000    -2.684000000    -4.889000000
H     3.557000000    -2.224000000    -4.064000000
C     2.031000000    -4.673000000    -5.954000000
H     1.770000000    -5.719000000    -5.816000000
C     2.199000000    -4.112000000    -7.183000000
H     1.944000000    -4.507000000    -8.163000000
C     2.557000000    -2.748000000    -7.252000000
H     2.692000000    -2.275000000    -8.221000000
C     3.033000000    -1.996000000    -6.147000000
O     3.649000000    -0.804000000    -6.195000000
C     3.112000000     0.284000000    -5.493000000
C     4.038000000     1.286000000    -5.087000000
H     5.115000000     1.239000000    -5.229000000
C     3.599000000     2.349000000    -4.312000000
O     4.519000000     3.158000000    -3.708000000
C     4.321000000     4.310000000    -2.956000000
C     4.036000000     5.490000000    -3.666000000
H     3.916000000     5.483000000    -4.746000000
C     4.122000000     6.713000000    -3.034000000
H     4.102000000     7.614000000    -3.642000000
C     4.111000000     6.694000000    -1.625000000
H     4.193000000     7.613000000    -1.050000000
C     4.148000000     5.444000000    -0.910000000
C     4.333000000     4.236000000    -1.592000000
H     4.550000000     3.389000000    -0.947000000
C     2.147000000     0.943000000     0.329000000
H     2.930000000     1.685000000     0.190000000
C     0.986000000     1.182000000    -0.331000000
H     0.861000000     2.091000000    -0.912000000
C    -0.094000000     0.312000000    -0.145000000
H    -1.169000000     0.524000000    -0.457000000
C     0.035000000    -0.784000000     0.671000000
H    -0.812000000    -1.444000000     0.839000000
C     1.245000000    -1.046000000     1.298000000
H     1.294000000    -2.029000000     1.759000000
C     2.309000000    -0.193000000     1.112000000
C     3.715000000    -0.597000000     1.681000000
O     3.732000000    -1.589000000     2.435000000
O     4.749000000    -0.101000000     1.244000000
O     6.623000000    -2.388000000     0.894000000
H     6.249000000    -1.513000000     0.997000000
H     7.143000000    -2.521000000     1.686000000
O     7.689000000     3.264000000     3.441000000
H     7.477000000     2.806000000     4.254000000
H     7.183000000     2.805000000     2.770000000
O     5.036000000    -1.789000000     8.047000000
H     4.826000000    -2.238000000     8.865000000
H     4.259000000    -1.909000000     7.501000000
O     4.002000000    -5.189000000     5.102000000
H     3.781000000    -5.602000000     5.937000000
H     3.537000000    -5.710000000     4.447000000
O     4.616000000    -2.432000000     4.875000000
H     4.369000000    -2.251000000     3.968000000
H     4.587000000    -3.386000000     4.945000000
O     7.216000000    -1.282000000     6.434000000
H     6.870000000    -0.658000000     5.796000000
H     6.469000000    -1.488000000     6.997000000
O     1.929000000    -1.052000000    -2.200000000
H     1.165000000    -1.533000000    -2.518000000
H     1.568000000    -0.397000000    -1.603000000
O     8.074000000    -3.358000000     2.941000000
H     7.481000000    -3.939000000     3.419000000
H     8.906000000    -3.831000000     2.920000000
O     5.733000000     0.241000000     4.164000000
H     5.751000000     0.503000000     3.244000000
H     5.362000000    -0.641000000     4.155000000
O     6.416000000     1.871000000     1.563000000
H     7.291000000     1.492000000     1.471000000
H     5.822000000     1.166000000     1.305000000
O     4.870000000    -0.782000000    -1.333000000
H     4.871000000    -0.356000000    -0.476000000
H     3.947000000    -0.966000000    -1.508000000
O     6.085000000    -3.271000000    -1.735000000
H     6.291000000    -3.332000000    -0.802000000
H     5.385000000    -2.620000000    -1.785000000
O     4.405000000    -3.882000000     1.417000000
H     4.059000000    -3.064000000     1.775000000
H     5.226000000    -3.629000000     0.994000000
O     8.971000000     0.500000000     1.383000000
H     9.612000000     1.061000000     0.947000000
H     8.855000000    -0.239000000     0.786000000
O     6.488000000    -4.830000000     4.559000000
H     6.780000000    -5.089000000     5.433000000
H     5.539000000    -4.959000000     4.576000000
O     7.527000000    -0.271000000    -2.101000000
H     8.047000000    -0.747000000    -1.454000000
H     6.619000000    -0.475000000    -1.876000000
O     5.284000000    -6.261000000     0.925000000
H     5.634000000    -5.928000000     0.098000000
H     4.843000000    -5.508000000     1.318000000
O     6.591000000     2.102000000     5.849000000
H     6.198000000     1.582000000     5.148000000
H     6.382000000     1.621000000     6.650000000
O     9.504000000    -0.984000000     3.622000000
H     8.892000000    -1.655000000     3.317000000
H     9.349000000    -0.238000000     3.043000000
