215
-1444.56753
C     0.554000000    -2.579000000     4.225000000
H     0.024000000    -3.337000000     3.654000000
C    -0.125000000    -1.314000000     4.267000000
C     0.452000000    -0.226000000     4.942000000
H    -0.134000000     0.690000000     4.913000000
C    -1.465000000    -1.154000000     3.504000000
O    -2.183000000    -2.380000000     3.589000000
H    -1.382000000    -0.900000000     2.437000000
O    -2.275000000    -0.191000000     4.197000000
C    -2.951000000     0.624000000     3.293000000
C    -2.384000000     1.868000000     3.105000000
H    -1.447000000     2.132000000     3.589000000
C    -2.955000000     2.706000000     2.204000000
O    -2.235000000     3.855000000     2.151000000
C    -4.069000000     2.375000000     1.469000000
C    -4.614000000     3.315000000     0.433000000
H    -5.657000000     3.099000000     0.190000000
C    -3.758000000     3.212000000    -0.796000000
C    -4.214000000     2.276000000    -1.754000000
H    -5.054000000     1.599000000    -1.623000000
H    -4.526000000     4.334000000     0.814000000
C    -4.613000000     1.066000000     1.617000000
H    -5.490000000     0.790000000     1.038000000
C    -4.084000000     0.182000000     2.611000000
C    -4.691000000    -1.186000000     2.784000000
H    -5.740000000    -1.205000000     2.480000000
H    -4.744000000    -1.391000000     3.856000000
C    -3.887000000    -2.194000000     1.995000000
C    -4.441000000    -2.518000000     0.695000000
H    -5.298000000    -1.904000000     0.429000000
C    -2.700000000    -2.795000000     2.377000000
C    -2.140000000    -3.741000000     1.544000000
H    -1.181000000    -4.192000000     1.785000000
C    -2.649000000    -4.034000000     0.277000000
O    -1.838000000    -4.753000000    -0.531000000
C    -0.854000000    -3.982000000    -1.273000000
C     0.496000000    -4.545000000    -1.149000000
C     1.464000000    -4.085000000    -2.053000000
H     1.158000000    -3.466000000    -2.892000000
C     0.849000000    -5.448000000    -0.155000000
H     0.038000000    -5.840000000     0.453000000
O    -1.494000000    -3.885000000    -2.579000000
H    -0.682000000    -2.977000000    -0.859000000
C    -3.818000000    -3.366000000    -0.195000000
C    -4.260000000    -3.457000000    -1.597000000
H    -5.336000000    -3.339000000    -1.743000000
H    -4.178000000    -4.502000000    -1.905000000
C    -3.508000000    -2.477000000    -2.459000000
C    -4.059000000    -1.237000000    -2.884000000
H    -5.087000000    -1.067000000    -2.574000000
C    -2.225000000    -2.769000000    -2.880000000
C    -1.510000000    -1.853000000    -3.630000000
H    -0.517000000    -2.185000000    -3.921000000
C    -2.026000000    -0.623000000    -4.043000000
O    -1.209000000     0.175000000    -4.735000000
C    -0.520000000     1.229000000    -3.924000000
C     0.947000000     1.423000000    -4.353000000
C     1.610000000     0.393000000    -4.950000000
H     1.154000000    -0.588000000    -5.058000000
C     1.638000000     2.649000000    -4.092000000
H     1.114000000     3.490000000    -3.645000000
O    -1.328000000     2.438000000    -4.086000000
H    -0.423000000     0.940000000    -2.867000000
C    -3.294000000    -0.347000000    -3.648000000
C    -3.898000000     1.023000000    -3.907000000
H    -4.986000000     0.970000000    -3.983000000
H    -3.638000000     1.297000000    -4.932000000
C    -3.324000000     1.940000000    -2.768000000
C    -2.137000000     2.680000000    -2.993000000
C    -1.865000000     3.758000000    -2.132000000
H    -0.913000000     4.241000000    -2.337000000
C    -2.610000000     4.015000000    -1.006000000
O    -2.195000000     4.817000000     0.018000000
C    -1.395000000     4.044000000     0.932000000
H    -1.198000000     3.037000000     0.536000000
C    -0.020000000     4.623000000     1.272000000
C     0.513000000     4.428000000     2.575000000
H    -0.084000000     4.017000000     3.385000000
C     0.719000000     5.278000000     0.318000000
H     0.314000000     5.513000000    -0.663000000
C     1.969000000     5.705000000     0.620000000
O     2.856000000     6.222000000    -0.264000000
C     2.637000000     5.354000000     1.814000000
H     3.539000000     5.890000000     2.097000000
C     1.845000000     4.782000000     2.790000000
O     2.390000000     4.731000000     4.047000000
C     1.998000000     3.959000000     5.174000000
C     2.315000000     2.629000000     5.224000000
H     2.676000000     2.188000000     4.298000000
C     1.360000000     4.568000000     6.172000000
H     1.157000000     5.631000000     6.074000000
C     1.145000000     3.975000000     7.383000000
H     0.651000000     4.507000000     8.192000000
C     1.490000000     2.609000000     7.520000000
H     1.125000000     2.056000000     8.382000000
C     1.927000000     1.929000000     6.392000000
O     2.186000000     0.582000000     6.503000000
C     1.639000000    -0.437000000     5.711000000
C     2.323000000    -1.642000000     5.531000000
H     3.328000000    -1.768000000     5.925000000
C     1.799000000    -2.718000000     4.823000000
O     2.626000000    -3.884000000     4.714000000
C     2.136000000    -5.032000000     4.029000000
C     2.657000000    -5.400000000     2.824000000
H     3.473000000    -4.830000000     2.387000000
C     1.184000000    -5.881000000     4.573000000
H     0.785000000    -5.546000000     5.527000000
C     0.781000000    -7.087000000     3.984000000
H     0.106000000    -7.806000000     4.442000000
C     1.313000000    -7.412000000     2.785000000
H     1.135000000    -8.349000000     2.264000000
C     2.222000000    -6.520000000     2.197000000
O     2.589000000    -6.786000000     0.866000000
C     2.160000000    -5.890000000    -0.073000000
C     3.082000000    -5.482000000    -0.922000000
H     4.124000000    -5.743000000    -0.752000000
C     2.802000000    -4.447000000    -1.860000000
O     3.835000000    -4.026000000    -2.649000000
C     3.783000000    -3.501000000    -3.901000000
C     3.538000000    -2.151000000    -4.177000000
H     3.534000000    -1.412000000    -3.380000000
C     4.043000000    -4.406000000    -4.972000000
H     4.243000000    -5.439000000    -4.700000000
C     4.093000000    -4.069000000    -6.278000000
H     4.354000000    -4.772000000    -7.065000000
C     4.006000000    -2.711000000    -6.553000000
H     4.320000000    -2.359000000    -7.532000000
C     3.665000000    -1.818000000    -5.535000000
O     3.636000000    -0.450000000    -5.897000000
C     2.971000000     0.524000000    -5.253000000
C     3.690000000     1.729000000    -5.014000000
H     4.727000000     1.793000000    -5.334000000
C     3.008000000     2.837000000    -4.473000000
O     3.686000000     3.981000000    -4.226000000
C     3.191000000     5.077000000    -3.609000000
C     2.575000000     6.102000000    -4.324000000
H     2.624000000     5.826000000    -5.374000000
C     2.063000000     7.209000000    -3.664000000
H     1.543000000     7.999000000    -4.198000000
C     2.242000000     7.271000000    -2.294000000
H     2.107000000     8.206000000    -1.757000000
C     2.800000000     6.207000000    -1.625000000
C     3.145000000     5.013000000    -2.267000000
H     3.550000000     4.158000000    -1.732000000
C     2.136000000     1.679000000     0.655000000
H     2.541000000     2.687000000     0.707000000
C     1.033000000     1.338000000    -0.098000000
H     0.556000000     2.080000000    -0.732000000
C     0.550000000     0.034000000    -0.042000000
H    -0.378000000    -0.227000000    -0.677000000
C     1.200000000    -0.963000000     0.737000000
H     0.865000000    -1.994000000     0.662000000
C     2.253000000    -0.518000000     1.480000000
H     2.721000000    -1.308000000     2.063000000
C     2.765000000     0.753000000     1.426000000
C     4.051000000     1.154000000     2.211000000
O     4.710000000     0.300000000     2.781000000
O     4.378000000     2.343000000     2.196000000
O     5.001000000     2.599000000    -0.417000000
H     5.925000000     2.422000000    -0.242000000
H     4.609000000     2.705000000     0.449000000
O     4.375000000     4.309000000     7.541000000
H     4.623000000     3.856000000     6.735000000
H     3.782000000     3.703000000     7.984000000
O     5.701000000     0.977000000     5.256000000
H     5.106000000     0.775000000     4.534000000
H     5.815000000     1.926000000     5.214000000
O     8.854000000     4.972000000     0.687000000
H     8.201000000     4.283000000     0.813000000
H     8.752000000     5.542000000     1.449000000
O     4.821000000    -0.725000000    -0.560000000
H     4.607000000     0.107000000    -0.983000000
H     4.053000000    -0.928000000    -0.027000000
O     4.965000000     3.677000000     4.363000000
H     4.599000000     4.556000000     4.460000000
H     4.711000000     3.409000000     3.480000000
O     6.766000000     3.759000000     1.839000000
H     6.777000000     4.154000000     2.711000000
H     5.897000000     3.363000000     1.766000000
O     7.144000000     5.661000000     4.175000000
H     7.510000000     6.392000000     3.677000000
H     6.216000000     5.876000000     4.270000000
O     7.170000000     0.558000000     2.086000000
H     6.232000000     0.521000000     2.274000000
H     7.309000000     1.440000000     1.739000000
O     5.363000000    -2.523000000     1.829000000
H     5.464000000    -2.384000000     2.770000000
H     5.408000000    -1.644000000     1.451000000
O     8.310000000    -0.586000000     4.504000000
H     7.801000000    -0.105000000     3.851000000
H     8.009000000    -0.242000000     5.344000000
O     8.061000000    -0.575000000    -1.263000000
H     7.646000000     0.017000000    -0.635000000
H     8.678000000    -0.022000000    -1.742000000
O     5.161000000    -3.128000000     4.453000000
H     5.558000000    -3.444000000     5.264000000
H     4.239000000    -3.374000000     4.526000000
O     6.180000000     3.087000000    -2.959000000
H     5.589000000     3.093000000    -2.206000000
H     6.363000000     2.160000000    -3.112000000
O     6.367000000    -4.909000000     1.058000000
H     6.509000000    -5.367000000     1.887000000
H     5.916000000    -4.101000000     1.305000000
O     8.195000000    -3.213000000     3.318000000
H     7.282000000    -2.942000000     3.414000000
H     8.666000000    -2.403000000     3.120000000
O     8.364000000    -2.781000000     0.404000000
H     8.319000000    -2.008000000    -0.159000000
H     7.516000000    -3.211000000     0.289000000
O     7.419000000     0.144000000     7.254000000
H     7.049000000     0.293000000     8.124000000
H     6.930000000     0.737000000     6.682000000
O     7.580000000     2.241000000    -0.617000000
H     8.338000000     2.498000000    -0.092000000
H     7.635000000     2.787000000    -1.401000000
