215
-1448.70933
C    -0.170000000    -1.608000000     4.483000000
H    -0.622000000    -2.380000000     3.865000000
C    -0.756000000    -0.327000000     4.504000000
C    -0.138000000     0.692000000     5.187000000
H    -0.546000000     1.699000000     5.141000000
C    -1.994000000    -0.097000000     3.605000000
O    -2.864000000    -1.284000000     3.601000000
H    -1.503000000     0.163000000     2.655000000
O    -2.680000000     1.097000000     4.024000000
C    -3.018000000     1.957000000     2.973000000
C    -2.092000000     2.969000000     2.660000000
H    -1.229000000     3.165000000     3.291000000
C    -2.290000000     3.745000000     1.583000000
O    -1.287000000     4.647000000     1.223000000
C    -3.297000000     3.507000000     0.697000000
C    -3.426000000     4.298000000    -0.614000000
H    -4.489000000     4.330000000    -0.863000000
C    -2.653000000     3.747000000    -1.789000000
C    -3.211000000     2.722000000    -2.546000000
H    -4.201000000     2.298000000    -2.399000000
H    -3.157000000     5.341000000    -0.436000000
C    -4.084000000     2.407000000     0.953000000
H    -4.931000000     2.183000000     0.309000000
C    -3.992000000     1.666000000     2.119000000
C    -4.975000000     0.488000000     2.248000000
H    -5.919000000     0.682000000     1.733000000
H    -5.160000000     0.327000000     3.313000000
C    -4.310000000    -0.772000000     1.657000000
C    -4.809000000    -1.259000000     0.458000000
H    -5.576000000    -0.652000000    -0.015000000
C    -3.384000000    -1.563000000     2.372000000
C    -2.905000000    -2.731000000     1.734000000
H    -2.198000000    -3.401000000     2.215000000
C    -3.350000000    -3.096000000     0.513000000
O    -2.821000000    -4.241000000    -0.014000000
C    -1.727000000    -4.042000000    -0.992000000
C    -0.634000000    -5.066000000    -0.719000000
C     0.419000000    -5.301000000    -1.633000000
H     0.321000000    -4.851000000    -2.618000000
C    -0.516000000    -5.615000000     0.575000000
H    -1.302000000    -5.482000000     1.315000000
O    -2.089000000    -4.009000000    -2.416000000
H    -1.266000000    -3.091000000    -0.689000000
C    -4.321000000    -2.397000000    -0.148000000
C    -4.652000000    -2.700000000    -1.605000000
H    -5.604000000    -2.255000000    -1.899000000
H    -4.798000000    -3.779000000    -1.690000000
C    -3.646000000    -2.100000000    -2.667000000
C    -3.887000000    -0.853000000    -3.171000000
H    -4.746000000    -0.253000000    -2.879000000
C    -2.501000000    -2.865000000    -3.035000000
C    -1.597000000    -2.316000000    -3.913000000
H    -0.770000000    -2.971000000    -4.174000000
C    -1.734000000    -1.057000000    -4.415000000
O    -0.613000000    -0.457000000    -4.948000000
C     0.117000000     0.446000000    -4.155000000
C     1.626000000     0.214000000    -4.247000000
C     2.130000000    -1.075000000    -4.426000000
H     1.405000000    -1.883000000    -4.487000000
C     2.554000000     1.304000000    -4.266000000
H     2.134000000     2.285000000    -4.056000000
O    -0.260000000     1.782000000    -4.564000000
H    -0.112000000     0.213000000    -3.105000000
C    -2.897000000    -0.334000000    -4.021000000
C    -2.994000000     1.076000000    -4.470000000
H    -4.060000000     1.227000000    -4.652000000
H    -2.527000000     1.160000000    -5.453000000
C    -2.439000000     2.200000000    -3.506000000
C    -1.072000000     2.514000000    -3.724000000
C    -0.534000000     3.445000000    -2.911000000
H     0.472000000     3.821000000    -3.078000000
C    -1.293000000     4.087000000    -1.946000000
O    -0.606000000     4.779000000    -0.995000000
C    -0.259000000     4.268000000     0.291000000
H    -0.289000000     3.190000000     0.077000000
C     1.125000000     4.622000000     0.715000000
C     1.382000000     4.752000000     2.058000000
H     0.630000000     4.877000000     2.833000000
C     2.166000000     4.665000000    -0.188000000
H     2.077000000     4.492000000    -1.258000000
C     3.465000000     4.924000000     0.232000000
O     4.533000000     5.024000000    -0.683000000
C     3.658000000     5.133000000     1.594000000
H     4.647000000     5.412000000     1.950000000
C     2.613000000     5.019000000     2.473000000
O     2.902000000     5.341000000     3.785000000
C     2.201000000     4.814000000     4.919000000
C     2.111000000     3.425000000     5.024000000
H     2.542000000     2.782000000     4.261000000
C     1.680000000     5.666000000     5.851000000
H     1.814000000     6.737000000     5.718000000
C     1.284000000     5.124000000     7.074000000
H     0.963000000     5.777000000     7.881000000
C     1.142000000     3.661000000     7.200000000
H     0.891000000     3.284000000     8.188000000
C     1.537000000     2.827000000     6.137000000
O     1.740000000     1.550000000     6.431000000
C     1.061000000     0.473000000     5.832000000
C     1.599000000    -0.846000000     5.966000000
H     2.521000000    -1.005000000     6.519000000
C     1.022000000    -1.858000000     5.222000000
O     1.647000000    -3.091000000     5.215000000
C     0.977000000    -4.211000000     4.860000000
C     1.210000000    -4.926000000     3.705000000
H     1.915000000    -4.580000000     2.953000000
C    -0.077000000    -4.622000000     5.688000000
H    -0.291000000    -4.005000000     6.557000000
C    -0.725000000    -5.834000000     5.447000000
H    -1.529000000    -6.234000000     6.061000000
C    -0.357000000    -6.583000000     4.351000000
H    -0.804000000    -7.565000000     4.220000000
C     0.547000000    -6.078000000     3.393000000
O     0.856000000    -6.757000000     2.197000000
C     0.594000000    -6.297000000     0.967000000
C     1.641000000    -6.550000000     0.057000000
H     2.506000000    -7.156000000     0.312000000
C     1.528000000    -6.067000000    -1.257000000
O     2.677000000    -6.207000000    -2.050000000
C     2.741000000    -5.592000000    -3.273000000
C     3.405000000    -4.353000000    -3.399000000
H     3.951000000    -3.816000000    -2.628000000
C     1.989000000    -6.176000000    -4.320000000
H     1.473000000    -7.130000000    -4.261000000
C     1.877000000    -5.536000000    -5.557000000
H     1.302000000    -5.895000000    -6.406000000
C     2.526000000    -4.293000000    -5.652000000
H     2.409000000    -3.785000000    -6.606000000
C     3.226000000    -3.708000000    -4.605000000
O     3.923000000    -2.588000000    -4.801000000
C     3.511000000    -1.311000000    -4.546000000
C     4.383000000    -0.271000000    -4.506000000
H     5.431000000    -0.452000000    -4.729000000
C     3.926000000     1.038000000    -4.415000000
O     4.869000000     2.139000000    -4.467000000
C     4.669000000     3.359000000    -3.924000000
C     4.073000000     4.356000000    -4.709000000
H     3.981000000     4.190000000    -5.779000000
C     3.797000000     5.611000000    -4.186000000
H     3.501000000     6.429000000    -4.837000000
C     3.874000000     5.804000000    -2.844000000
H     3.522000000     6.744000000    -2.426000000
C     4.431000000     4.849000000    -2.015000000
C     4.837000000     3.608000000    -2.546000000
H     5.289000000     2.826000000    -1.941000000
C     2.087000000     1.049000000     0.314000000
H     2.846000000     1.782000000     0.055000000
C     0.851000000     0.864000000    -0.277000000
H     0.458000000     1.431000000    -1.117000000
C     0.065000000    -0.184000000     0.160000000
H    -0.895000000    -0.453000000    -0.363000000
C     0.531000000    -0.949000000     1.281000000
H    -0.076000000    -1.771000000     1.653000000
C     1.761000000    -0.683000000     1.879000000
H     2.087000000    -1.313000000     2.702000000
C     2.571000000     0.305000000     1.410000000
C     3.860000000     0.671000000     2.065000000
O     4.163000000     0.420000000     3.229000000
O     4.667000000     1.208000000     1.319000000
O     8.262000000     1.075000000     0.302000000
H     9.042000000     0.521000000     0.332000000
H     7.732000000     0.783000000     1.044000000
O     4.578000000    -2.681000000     6.458000000
H     3.843000000    -3.291000000     6.520000000
H     4.602000000    -2.428000000     5.535000000
O     6.770000000    -2.474000000    -1.074000000
H     7.510000000    -1.901000000    -0.872000000
H     6.016000000    -1.886000000    -1.119000000
O     4.618000000    -2.001000000     3.999000000
H     4.640000000    -2.342000000     3.105000000
H     4.410000000    -1.072000000     3.896000000
O     5.967000000     1.469000000     4.949000000
H     5.204000000     1.027000000     4.578000000
H     5.785000000     2.401000000     4.830000000
O     7.579000000    -2.532000000     3.419000000
H     6.938000000    -2.986000000     2.873000000
H     7.393000000    -1.602000000     3.285000000
O     7.047000000     0.185000000     2.549000000
H     6.127000000     0.331000000     2.327000000
H     7.117000000     0.451000000     3.466000000
O     2.843000000    -2.536000000    -0.652000000
H     1.983000000    -2.258000000    -0.965000000
H     2.842000000    -2.313000000     0.279000000
O     5.401000000     4.190000000     4.242000000
H     5.858000000     4.208000000     3.401000000
H     4.681000000     4.811000000     4.136000000
O     5.326000000    -3.038000000     1.311000000
H     4.839000000    -3.777000000     0.945000000
H     5.697000000    -2.594000000     0.549000000
O     6.286000000     3.120000000     1.474000000
H     6.998000000     2.541000000     1.202000000
H     5.503000000     2.571000000     1.434000000
O     3.846000000     2.443000000     8.478000000
H     3.478000000     2.522000000     7.598000000
H     3.324000000     1.758000000     8.895000000
O     4.871000000    -0.481000000    -0.913000000
H     4.962000000     0.082000000    -0.144000000
H     3.926000000    -0.602000000    -1.009000000
O     7.223000000     5.591000000     1.832000000
H     6.995000000     6.214000000     1.142000000
H     6.917000000     4.746000000     1.503000000
O     8.717000000     2.400000000    -2.095000000
H     8.202000000     1.755000000    -2.579000000
H     8.454000000     2.281000000    -1.182000000
O     7.849000000     1.182000000     6.896000000
H     7.192000000     1.281000000     6.207000000
H     7.735000000     0.286000000     7.210000000
O     6.951000000     0.330000000    -2.903000000
H     7.229000000    -0.583000000    -2.832000000
H     6.065000000     0.339000000    -2.540000000
O     5.455000000    -0.061000000     7.722000000
H     5.234000000    -0.991000000     7.676000000
H     4.628000000     0.390000000     7.551000000
O     5.490000000    -5.196000000     4.412000000
H     5.303000000    -5.638000000     3.583000000
H     4.916000000    -4.430000000     4.410000000
