215
-1464.61309
C    -0.708000000    -2.475000000     4.159000000
H    -1.170000000    -3.090000000     3.391000000
C    -1.013000000    -1.110000000     4.265000000
C    -0.236000000    -0.327000000     5.088000000
H    -0.366000000     0.752000000     5.064000000
C    -2.218000000    -0.493000000     3.484000000
O    -3.239000000    -1.494000000     3.318000000
H    -1.775000000    -0.122000000     2.548000000
O    -2.763000000     0.663000000     4.132000000
C    -2.933000000     1.790000000     3.349000000
C    -1.842000000     2.661000000     3.305000000
H    -0.965000000     2.524000000     3.933000000
C    -1.786000000     3.625000000     2.310000000
O    -0.654000000     4.438000000     2.212000000
C    -2.824000000     3.652000000     1.328000000
C    -2.771000000     4.689000000     0.210000000
H    -3.783000000     5.039000000    -0.004000000
C    -2.066000000     4.226000000    -1.086000000
C    -2.773000000     3.609000000    -2.141000000
H    -3.811000000     3.297000000    -2.062000000
H    -2.280000000     5.543000000     0.681000000
C    -3.894000000     2.841000000     1.389000000
H    -4.663000000     2.888000000     0.622000000
C    -3.916000000     1.846000000     2.364000000
C    -4.987000000     0.801000000     2.393000000
H    -5.893000000     1.256000000     1.987000000
H    -5.206000000     0.525000000     3.427000000
C    -4.586000000    -0.430000000     1.603000000
C    -4.948000000    -0.396000000     0.239000000
H    -5.424000000     0.435000000    -0.275000000
C    -3.762000000    -1.474000000     2.042000000
C    -3.523000000    -2.583000000     1.243000000
H    -3.050000000    -3.451000000     1.694000000
C    -3.917000000    -2.578000000    -0.070000000
O    -3.501000000    -3.632000000    -0.861000000
C    -2.333000000    -3.485000000    -1.741000000
C    -1.306000000    -4.654000000    -1.601000000
C    -0.220000000    -4.791000000    -2.462000000
H    -0.074000000    -3.987000000    -3.179000000
C    -1.456000000    -5.529000000    -0.509000000
H    -2.204000000    -5.419000000     0.272000000
O    -2.594000000    -3.152000000    -3.077000000
H    -1.737000000    -2.635000000    -1.375000000
C    -4.622000000    -1.466000000    -0.659000000
C    -4.888000000    -1.393000000    -2.152000000
H    -5.730000000    -0.714000000    -2.306000000
H    -5.099000000    -2.426000000    -2.437000000
C    -3.721000000    -0.925000000    -3.009000000
C    -3.645000000     0.422000000    -3.338000000
H    -4.503000000     0.963000000    -2.946000000
C    -2.672000000    -1.787000000    -3.437000000
C    -1.578000000    -1.263000000    -4.136000000
H    -0.763000000    -1.907000000    -4.455000000
C    -1.569000000     0.119000000    -4.467000000
O    -0.407000000     0.661000000    -4.947000000
C     0.414000000     1.282000000    -3.996000000
C     1.853000000     0.851000000    -4.062000000
C     2.220000000    -0.496000000    -4.353000000
H     1.380000000    -1.167000000    -4.508000000
C     2.841000000     1.805000000    -3.953000000
H     2.615000000     2.839000000    -3.706000000
O     0.173000000     2.766000000    -4.229000000
H     0.077000000     0.917000000    -3.014000000
C    -2.599000000     0.963000000    -4.046000000
C    -2.642000000     2.476000000    -4.405000000
H    -3.681000000     2.791000000    -4.525000000
H    -2.093000000     2.506000000    -5.349000000
C    -1.994000000     3.279000000    -3.284000000
C    -0.605000000     3.381000000    -3.307000000
C     0.124000000     3.888000000    -2.242000000
H     1.206000000     3.987000000    -2.241000000
C    -0.644000000     4.306000000    -1.119000000
O     0.065000000     4.810000000    -0.076000000
C     0.257000000     4.027000000     1.163000000
H     0.066000000     2.950000000     1.044000000
C     1.727000000     3.927000000     1.594000000
C     2.008000000     3.862000000     2.917000000
H     1.167000000     3.721000000     3.591000000
C     2.751000000     4.112000000     0.697000000
H     2.413000000     4.224000000    -0.330000000
C     4.093000000     4.163000000     1.067000000
O     5.212000000     4.312000000     0.249000000
C     4.328000000     3.966000000     2.391000000
H     5.370000000     3.986000000     2.701000000
C     3.293000000     3.822000000     3.360000000
O     3.609000000     3.724000000     4.718000000
C     2.689000000     3.196000000     5.589000000
C     2.336000000     1.888000000     5.480000000
H     2.599000000     1.311000000     4.598000000
C     2.238000000     3.976000000     6.611000000
H     2.325000000     5.057000000     6.528000000
C     1.536000000     3.382000000     7.666000000
H     0.996000000     4.006000000     8.373000000
C     1.428000000     1.948000000     7.740000000
H     0.924000000     1.472000000     8.577000000
C     1.743000000     1.225000000     6.599000000
O     1.624000000    -0.143000000     6.609000000
C     0.814000000    -0.871000000     5.814000000
C     1.143000000    -2.217000000     5.594000000
H     2.085000000    -2.605000000     5.974000000
C     0.415000000    -3.013000000     4.746000000
O     0.996000000    -4.139000000     4.248000000
C     0.177000000    -5.201000000     3.889000000
C     0.089000000    -5.617000000     2.567000000
H     0.626000000    -5.078000000     1.791000000
C    -0.555000000    -5.882000000     4.871000000
H    -0.372000000    -5.471000000     5.860000000
C    -1.412000000    -6.948000000     4.479000000
H    -1.978000000    -7.416000000     5.280000000
C    -1.448000000    -7.365000000     3.112000000
H    -2.079000000    -8.231000000     2.933000000
C    -0.647000000    -6.735000000     2.229000000
O    -0.447000000    -7.252000000     0.953000000
C    -0.442000000    -6.468000000    -0.227000000
C     0.608000000    -6.621000000    -1.119000000
H     1.345000000    -7.365000000    -0.829000000
C     0.784000000    -5.698000000    -2.199000000
O     1.945000000    -5.707000000    -2.974000000
C     2.095000000    -4.963000000    -4.082000000
C     2.962000000    -3.888000000    -4.016000000
H     3.483000000    -3.664000000    -3.089000000
C     1.382000000    -5.319000000    -5.242000000
H     0.723000000    -6.182000000    -5.270000000
C     1.702000000    -4.589000000    -6.395000000
H     1.216000000    -4.821000000    -7.340000000
C     2.547000000    -3.515000000    -6.415000000
H     2.656000000    -2.912000000    -7.313000000
C     3.146000000    -3.202000000    -5.160000000
O     3.934000000    -2.083000000    -5.228000000
C     3.552000000    -0.869000000    -4.685000000
C     4.516000000     0.177000000    -4.541000000
H     5.569000000    -0.007000000    -4.739000000
C     4.205000000     1.470000000    -4.125000000
O     5.232000000     2.432000000    -4.110000000
C     5.165000000     3.546000000    -3.296000000
C     4.683000000     4.738000000    -3.851000000
H     4.374000000     4.792000000    -4.891000000
C     4.446000000     5.821000000    -3.006000000
H     4.187000000     6.757000000    -3.494000000
C     4.682000000     5.751000000    -1.631000000
H     4.536000000     6.551000000    -0.910000000
C     5.048000000     4.508000000    -1.123000000
C     5.400000000     3.458000000    -1.948000000
H     5.822000000     2.583000000    -1.459000000
C     3.071000000     1.047000000     0.172000000
H     3.902000000     1.605000000    -0.251000000
C     1.820000000     1.119000000    -0.402000000
H     1.586000000     1.800000000    -1.216000000
C     0.812000000     0.308000000     0.061000000
H    -0.181000000     0.306000000    -0.448000000
C     1.074000000    -0.507000000     1.170000000
H     0.204000000    -1.034000000     1.554000000
C     2.314000000    -0.515000000     1.785000000
H     2.436000000    -1.121000000     2.680000000
C     3.328000000     0.218000000     1.237000000
C     4.722000000     0.329000000     1.818000000
O     4.909000000     0.086000000     2.987000000
O     5.672000000     0.490000000     1.100000000
O     8.222000000    -1.000000000     1.507000000
H     7.468000000    -0.415000000     1.433000000
H     7.989000000    -1.602000000     2.213000000
O     7.772000000    -2.247000000     4.260000000
H     8.107000000    -1.427000000     4.623000000
H     6.877000000    -2.309000000     4.595000000
O     5.858000000    -2.773000000     7.209000000
H     5.533000000    -2.036000000     7.726000000
H     5.666000000    -2.533000000     6.303000000
O     4.313000000    -3.632000000     2.168000000
H     5.055000000    -3.644000000     1.564000000
H     3.602000000    -4.051000000     1.682000000
O     5.071000000    -2.176000000     4.587000000
H     5.111000000    -1.433000000     3.985000000
H     4.676000000    -2.880000000     4.073000000
O     5.685000000     1.053000000     5.827000000
H     5.007000000     0.676000000     5.265000000
H     6.481000000     1.019000000     5.296000000
O     6.819000000    -2.842000000     0.067000000
H     7.575000000    -2.255000000     0.069000000
H     6.077000000    -2.275000000    -0.144000000
O     3.517000000    -2.072000000    -0.947000000
H     2.787000000    -1.557000000    -0.605000000
H     4.162000000    -1.420000000    -1.224000000
O    10.536000000    -0.078000000     3.749000000
H     9.810000000     0.410000000     3.359000000
H    10.263000000    -0.232000000     4.653000000
O     7.487000000     0.774000000     3.819000000
H     7.768000000     1.497000000     3.258000000
H     6.685000000     0.451000000     3.410000000
O     7.519000000     2.483000000     1.676000000
H     7.696000000     2.906000000     0.836000000
H     6.891000000     1.791000000     1.469000000
O     5.542000000    -0.283000000    -1.321000000
H     5.604000000    -0.026000000    -0.401000000
H     6.293000000     0.139000000    -1.738000000
O     2.703000000    -4.601000000     0.427000000
H     2.934000000    -3.837000000    -0.103000000
H     2.651000000    -5.321000000    -0.201000000
O     8.495000000     3.168000000    -0.809000000
H     8.056000000     2.948000000    -1.630000000
H     9.373000000     3.443000000    -1.073000000
O    10.059000000     0.193000000     0.035000000
H    10.025000000    -0.759000000    -0.061000000
H     9.432000000     0.386000000     0.732000000
O     7.462000000     5.854000000    -0.153000000
H     6.961000000     5.070000000     0.072000000
H     7.520000000     5.836000000    -1.108000000
O     7.581000000     0.877000000    -2.592000000
H     8.165000000     0.165000000    -2.851000000
H     7.956000000     1.657000000    -3.003000000
O     5.771000000    -4.532000000    -2.085000000
H     5.796000000    -3.945000000    -1.329000000
H     6.587000000    -4.354000000    -2.553000000
O     6.360000000     3.818000000     6.480000000
H     5.975000000     2.947000000     6.383000000
H     5.893000000     4.205000000     7.221000000
