215
-1467.38758
C     4.102000000    -0.584000000    -2.534000000
H     3.756000000    -1.603000000    -2.689000000
C     4.391000000    -0.090000000    -1.231000000
C     4.843000000     1.212000000    -1.085000000
H     5.103000000     1.536000000    -0.080000000
C     4.026000000    -0.991000000    -0.055000000
O     4.305000000    -2.348000000    -0.173000000
H     2.954000000    -0.818000000     0.126000000
O     4.686000000    -0.492000000     1.114000000
C     3.986000000    -0.305000000     2.241000000
C     3.567000000     0.940000000     2.573000000
H     3.925000000     1.850000000     2.097000000
C     2.630000000     1.083000000     3.622000000
O     2.341000000     2.408000000     4.010000000
C     2.149000000    -0.043000000     4.359000000
C     1.163000000     0.192000000     5.459000000
H     1.147000000    -0.477000000     6.322000000
C    -0.167000000     0.349000000     4.737000000
C    -0.971000000    -0.783000000     4.766000000
H    -0.522000000    -1.715000000     5.099000000
H     1.316000000     1.147000000     5.966000000
C     2.590000000    -1.262000000     3.968000000
H     2.214000000    -2.176000000     4.423000000
C     3.574000000    -1.407000000     2.983000000
C     3.977000000    -2.820000000     2.663000000
H     3.920000000    -3.339000000     3.621000000
H     4.963000000    -2.927000000     2.207000000
C     3.000000000    -3.375000000     1.653000000
C     1.824000000    -4.104000000     2.049000000
H     1.585000000    -4.302000000     3.091000000
C     3.281000000    -3.146000000     0.276000000
C     2.410000000    -3.710000000    -0.665000000
H     2.601000000    -3.549000000    -1.723000000
C     1.219000000    -4.280000000    -0.244000000
O     0.344000000    -4.750000000    -1.214000000
C    -0.768000000    -3.891000000    -1.482000000
C    -1.045000000    -3.707000000    -3.044000000
C    -2.309000000    -3.442000000    -3.523000000
H    -3.059000000    -3.245000000    -2.762000000
C    -0.027000000    -3.789000000    -3.963000000
H     0.967000000    -4.044000000    -3.603000000
O    -1.916000000    -4.522000000    -0.852000000
H    -0.659000000    -2.903000000    -1.011000000
C     0.962000000    -4.627000000     1.052000000
C    -0.290000000    -5.423000000     1.573000000
H     0.048000000    -5.792000000     2.544000000
H    -0.412000000    -6.255000000     0.876000000
C    -1.498000000    -4.478000000     1.615000000
C    -1.871000000    -3.851000000     2.809000000
H    -1.310000000    -4.147000000     3.692000000
C    -2.215000000    -4.178000000     0.446000000
C    -3.331000000    -3.374000000     0.507000000
H    -3.820000000    -3.105000000    -0.426000000
C    -3.583000000    -2.673000000     1.755000000
O    -4.530000000    -1.605000000     1.735000000
C    -3.948000000    -0.246000000     1.668000000
C    -4.453000000     0.643000000     0.465000000
C    -5.066000000     0.079000000    -0.666000000
H    -5.085000000    -1.006000000    -0.714000000
C    -4.237000000     2.001000000     0.550000000
H    -3.592000000     2.345000000     1.354000000
O    -3.920000000     0.458000000     2.945000000
H    -2.884000000    -0.461000000     1.488000000
C    -2.849000000    -2.904000000     2.880000000
C    -3.041000000    -2.099000000     4.250000000
H    -2.663000000    -2.639000000     5.121000000
H    -4.080000000    -1.845000000     4.471000000
C    -2.304000000    -0.790000000     4.276000000
C    -2.736000000     0.406000000     3.683000000
C    -1.879000000     1.516000000     3.586000000
H    -2.265000000     2.468000000     3.231000000
C    -0.606000000     1.532000000     4.165000000
O     0.055000000     2.705000000     4.280000000
C     1.135000000     2.805000000     3.345000000
H     1.037000000     2.090000000     2.515000000
C     1.116000000     4.210000000     2.768000000
C     2.228000000     4.669000000     2.026000000
H     3.129000000     4.061000000     2.009000000
C    -0.142000000     4.928000000     2.675000000
H    -1.084000000     4.676000000     3.155000000
C    -0.181000000     6.162000000     1.979000000
O    -1.305000000     6.856000000     1.883000000
C     0.948000000     6.596000000     1.316000000
H     0.933000000     7.474000000     0.675000000
C     2.052000000     5.820000000     1.274000000
O     3.155000000     6.300000000     0.658000000
C     4.284000000     5.585000000     0.300000000
C     4.309000000     4.801000000    -0.813000000
H     3.375000000     4.673000000    -1.354000000
C     5.364000000     5.592000000     1.210000000
H     5.342000000     6.146000000     2.146000000
C     6.507000000     4.934000000     0.851000000
H     7.418000000     5.116000000     1.415000000
C     6.549000000     4.102000000    -0.254000000
H     7.454000000     3.590000000    -0.569000000
C     5.416000000     4.052000000    -1.050000000
O     5.457000000     3.338000000    -2.203000000
C     5.013000000     2.016000000    -2.205000000
C     4.715000000     1.531000000    -3.492000000
H     5.049000000     2.134000000    -4.333000000
C     4.160000000     0.257000000    -3.630000000
O     3.713000000    -0.120000000    -4.871000000
C     3.522000000    -1.364000000    -5.337000000
C     2.222000000    -1.927000000    -5.444000000
H     1.334000000    -1.398000000    -5.108000000
C     4.649000000    -1.973000000    -5.936000000
H     5.618000000    -1.480000000    -5.947000000
C     4.494000000    -3.222000000    -6.634000000
H     5.308000000    -3.683000000    -7.188000000
C     3.213000000    -3.768000000    -6.689000000
H     3.116000000    -4.695000000    -7.249000000
C     2.080000000    -3.159000000    -6.065000000
O     0.801000000    -3.762000000    -6.197000000
C    -0.275000000    -3.619000000    -5.341000000
C    -1.589000000    -3.411000000    -5.836000000
H    -1.806000000    -3.376000000    -6.900000000
C    -2.599000000    -3.244000000    -4.859000000
O    -3.911000000    -3.016000000    -5.278000000
C    -5.009000000    -2.681000000    -4.446000000
C    -5.087000000    -1.388000000    -3.929000000
H    -4.233000000    -0.738000000    -4.105000000
C    -5.942000000    -3.577000000    -4.074000000
H    -5.817000000    -4.573000000    -4.490000000
C    -6.991000000    -3.289000000    -3.140000000
H    -7.675000000    -4.069000000    -2.816000000
C    -7.021000000    -2.008000000    -2.602000000
H    -7.792000000    -1.671000000    -1.916000000
C    -6.109000000    -1.028000000    -3.034000000
O    -6.279000000     0.318000000    -2.667000000
C    -5.586000000     0.853000000    -1.620000000
C    -5.536000000     2.200000000    -1.500000000
H    -6.009000000     2.807000000    -2.268000000
C    -4.794000000     2.822000000    -0.505000000
O    -4.556000000     4.229000000    -0.521000000
C    -4.162000000     4.891000000     0.609000000
C    -4.958000000     4.838000000     1.761000000
H    -5.960000000     4.443000000     1.616000000
C    -4.568000000     5.585000000     2.896000000
H    -5.236000000     5.868000000     3.706000000
C    -3.350000000     6.255000000     2.923000000
H    -2.989000000     6.895000000     3.724000000
C    -2.511000000     6.221000000     1.819000000
C    -2.945000000     5.531000000     0.662000000
H    -2.288000000     5.497000000    -0.203000000
C    -0.693000000     0.210000000    -2.098000000
H    -1.290000000     0.273000000    -3.005000000
C    -1.113000000    -0.563000000    -1.005000000
H    -1.987000000    -1.186000000    -1.176000000
C    -0.347000000    -0.639000000     0.177000000
H    -0.654000000    -1.298000000     0.995000000
C     0.784000000     0.158000000     0.354000000
H     1.364000000     0.100000000     1.272000000
C     1.033000000     1.165000000    -0.581000000
H     1.824000000     1.872000000    -0.343000000
C     0.311000000     1.182000000    -1.833000000
C     0.643000000     2.218000000    -2.962000000
O     1.481000000     3.134000000    -2.772000000
O    -0.124000000     2.225000000    -3.942000000
O     0.159000000     8.237000000    -2.362000000
H    -0.655000000     8.739000000    -2.306000000
H    -0.125000000     7.324000000    -2.406000000
O     2.630000000     2.426000000    -5.684000000
H     2.501000000     3.158000000    -5.080000000
H     2.652000000     1.652000000    -5.121000000
O     4.653000000     5.250000000    -6.257000000
H     5.087000000     6.091000000    -6.119000000
H     4.084000000     5.146000000    -5.495000000
O     6.135000000     6.035000000    -3.710000000
H     5.259000000     6.185000000    -3.354000000
H     6.291000000     5.100000000    -3.577000000
O     5.162000000     2.536000000    -6.727000000
H     4.349000000     2.259000000    -6.306000000
H     5.310000000     3.424000000    -6.402000000
O    -2.772000000     0.938000000    -7.219000000
H    -3.635000000     0.534000000    -7.315000000
H    -2.949000000     1.786000000    -6.811000000
O    -2.708000000     2.380000000    -4.645000000
H    -2.612000000     3.332000000    -4.627000000
H    -1.916000000     2.051000000    -4.219000000
O     1.341000000     6.811000000    -6.049000000
H     1.269000000     5.877000000    -6.244000000
H     0.677000000     6.966000000    -5.377000000
O    -5.089000000     3.187000000    -5.227000000
H    -5.313000000     4.054000000    -4.888000000
H    -4.237000000     2.991000000    -4.838000000
O     0.982000000     0.666000000    -8.301000000
H     0.728000000     0.687000000    -7.378000000
H     0.521000000     1.407000000    -8.694000000
O     0.125000000     3.750000000    -8.754000000
H     0.080000000     4.199000000    -7.910000000
H     0.993000000     3.966000000    -9.095000000
O     2.677000000     4.406000000    -7.741000000
H     2.537000000     3.634000000    -7.192000000
H     3.460000000     4.819000000    -7.378000000
O     3.152000000     4.829000000    -3.988000000
H     2.597000000     4.189000000    -3.543000000
H     2.939000000     5.663000000    -3.569000000
O    -2.584000000     5.311000000    -4.540000000
H    -2.732000000     5.748000000    -5.378000000
H    -3.197000000     5.732000000    -3.938000000
O    -2.906000000     4.528000000    -7.676000000
H    -2.608000000     5.437000000    -7.652000000
H    -2.141000000     4.018000000    -7.410000000
O    -0.293000000     4.209000000    -5.934000000
H    -0.677000000     4.920000000    -5.419000000
H    -0.110000000     3.522000000    -5.293000000
O    -0.169000000     0.385000000    -5.957000000
H    -1.076000000     0.391000000    -6.262000000
H    -0.149000000     1.029000000    -5.250000000
O    -0.088000000     5.641000000    -3.015000000
H    -0.876000000     5.193000000    -2.707000000
H     0.553000000     4.941000000    -3.137000000
O     2.705000000     7.243000000    -2.837000000
H     2.752000000     7.912000000    -3.520000000
H     1.811000000     7.306000000    -2.502000000
