215
-1458.96235
C    -1.522000000    -2.469000000     4.983000000
H    -2.363000000    -3.048000000     4.610000000
C    -1.473000000    -1.122000000     4.739000000
C    -0.421000000    -0.462000000     5.335000000
H    -0.402000000     0.598000000     5.097000000
C    -2.259000000    -0.496000000     3.610000000
O    -3.415000000    -1.247000000     3.194000000
H    -1.599000000    -0.467000000     2.730000000
O    -2.678000000     0.850000000     3.998000000
C    -2.726000000     1.876000000     3.047000000
C    -1.709000000     2.746000000     3.009000000
H    -0.864000000     2.681000000     3.690000000
C    -1.691000000     3.804000000     2.059000000
O    -0.504000000     4.502000000     1.910000000
C    -2.699000000     3.901000000     1.103000000
C    -2.687000000     4.946000000     0.001000000
H    -3.694000000     5.174000000    -0.356000000
C    -1.974000000     4.332000000    -1.233000000
C    -2.622000000     3.659000000    -2.274000000
H    -3.694000000     3.549000000    -2.138000000
H    -2.295000000     5.852000000     0.469000000
C    -3.748000000     2.944000000     1.195000000
H    -4.609000000     3.073000000     0.544000000
C    -3.770000000     1.939000000     2.127000000
C    -4.927000000     0.952000000     2.146000000
H    -5.848000000     1.477000000     1.886000000
H    -5.103000000     0.597000000     3.163000000
C    -4.608000000    -0.304000000     1.303000000
C    -4.972000000    -0.490000000    -0.031000000
H    -5.566000000     0.201000000    -0.625000000
C    -3.742000000    -1.292000000     1.876000000
C    -3.336000000    -2.429000000     1.121000000
H    -2.683000000    -3.158000000     1.595000000
C    -3.724000000    -2.619000000    -0.196000000
O    -3.200000000    -3.660000000    -0.909000000
C    -2.041000000    -3.410000000    -1.627000000
C    -1.052000000    -4.493000000    -1.399000000
C    -0.008000000    -4.695000000    -2.315000000
H    -0.059000000    -4.095000000    -3.219000000
C    -1.003000000    -5.032000000    -0.114000000
H    -1.666000000    -4.664000000     0.665000000
O    -2.437000000    -3.259000000    -3.010000000
H    -1.609000000    -2.435000000    -1.358000000
C    -4.508000000    -1.607000000    -0.805000000
C    -4.867000000    -1.693000000    -2.313000000
H    -5.769000000    -1.132000000    -2.568000000
H    -5.019000000    -2.755000000    -2.516000000
C    -3.749000000    -1.141000000    -3.126000000
C    -3.684000000     0.231000000    -3.449000000
H    -4.445000000     0.909000000    -3.071000000
C    -2.661000000    -1.993000000    -3.505000000
C    -1.562000000    -1.378000000    -4.128000000
H    -0.662000000    -1.932000000    -4.384000000
C    -1.507000000    -0.034000000    -4.387000000
O    -0.359000000     0.536000000    -4.894000000
C     0.437000000     1.260000000    -4.053000000
C     1.834000000     0.790000000    -4.077000000
C     2.173000000    -0.396000000    -4.746000000
H     1.413000000    -0.933000000    -5.308000000
C     2.810000000     1.539000000    -3.462000000
H     2.607000000     2.488000000    -2.972000000
O     0.329000000     2.663000000    -4.294000000
H     0.056000000     1.066000000    -3.039000000
C    -2.591000000     0.815000000    -4.064000000
C    -2.578000000     2.305000000    -4.441000000
H    -3.578000000     2.649000000    -4.714000000
H    -2.075000000     2.328000000    -5.409000000
C    -1.899000000     3.156000000    -3.396000000
C    -0.489000000     3.387000000    -3.509000000
C     0.131000000     4.112000000    -2.498000000
H     1.211000000     4.226000000    -2.551000000
C    -0.558000000     4.460000000    -1.313000000
O     0.152000000     4.989000000    -0.290000000
C     0.396000000     4.085000000     0.870000000
H     0.138000000     3.038000000     0.653000000
C     1.867000000     4.180000000     1.422000000
C     2.205000000     3.685000000     2.692000000
H     1.469000000     3.202000000     3.330000000
C     2.886000000     4.891000000     0.720000000
H     2.652000000     5.298000000    -0.260000000
C     4.200000000     4.858000000     1.168000000
O     5.280000000     5.299000000     0.365000000
C     4.464000000     4.318000000     2.411000000
H     5.488000000     4.318000000     2.775000000
C     3.494000000     3.737000000     3.189000000
O     3.957000000     3.100000000     4.327000000
C     2.998000000     2.642000000     5.265000000
C     2.756000000     1.299000000     5.577000000
H     3.310000000     0.541000000     5.030000000
C     2.316000000     3.617000000     5.912000000
H     2.458000000     4.681000000     5.744000000
C     1.373000000     3.270000000     6.896000000
H     0.813000000     4.000000000     7.475000000
C     1.114000000     1.955000000     7.195000000
H     0.307000000     1.747000000     7.893000000
C     1.788000000     0.964000000     6.491000000
O     1.588000000    -0.310000000     6.794000000
C     0.504000000    -1.051000000     6.215000000
C     0.489000000    -2.401000000     6.313000000
H     1.235000000    -2.934000000     6.897000000
C    -0.476000000    -3.154000000     5.661000000
O    -0.523000000    -4.543000000     5.786000000
C    -0.988000000    -5.301000000     4.724000000
C    -0.213000000    -5.386000000     3.566000000
H     0.725000000    -4.860000000     3.405000000
C    -2.267000000    -5.829000000     4.730000000
H    -2.913000000    -5.681000000     5.591000000
C    -2.740000000    -6.520000000     3.642000000
H    -3.768000000    -6.870000000     3.674000000
C    -1.931000000    -6.651000000     2.527000000
H    -2.311000000    -7.261000000     1.712000000
C    -0.658000000    -6.120000000     2.499000000
O     0.230000000    -6.385000000     1.430000000
C     0.044000000    -5.926000000     0.130000000
C     1.062000000    -6.201000000    -0.764000000
H     1.905000000    -6.848000000    -0.537000000
C     1.033000000    -5.624000000    -2.000000000
O     2.017000000    -5.860000000    -2.975000000
C     2.228000000    -5.165000000    -4.126000000
C     2.744000000    -3.841000000    -4.011000000
H     2.723000000    -3.402000000    -3.017000000
C     2.170000000    -5.843000000    -5.331000000
H     1.977000000    -6.913000000    -5.307000000
C     2.599000000    -5.276000000    -6.458000000
H     2.507000000    -5.838000000    -7.384000000
C     3.042000000    -3.952000000    -6.447000000
H     3.381000000    -3.411000000    -7.326000000
C     3.092000000    -3.244000000    -5.256000000
O     3.876000000    -2.098000000    -5.231000000
C     3.500000000    -0.935000000    -4.643000000
C     4.485000000    -0.165000000    -4.077000000
H     5.509000000    -0.529000000    -4.078000000
C     4.152000000     1.044000000    -3.492000000
O     5.171000000     1.852000000    -2.901000000
C     5.085000000     3.200000000    -2.571000000
C     4.757000000     4.151000000    -3.535000000
H     4.518000000     3.821000000    -4.543000000
C     4.696000000     5.523000000    -3.229000000
H     4.357000000     6.255000000    -3.957000000
C     4.955000000     5.967000000    -1.906000000
H     4.742000000     6.998000000    -1.637000000
C     5.284000000     4.960000000    -0.985000000
C     5.361000000     3.623000000    -1.329000000
H     5.653000000     2.946000000    -0.531000000
C     2.282000000     0.750000000     0.498000000
H     2.889000000     1.633000000     0.311000000
C     1.032000000     0.583000000    -0.162000000
H     0.700000000     1.281000000    -0.926000000
C     0.331000000    -0.555000000     0.040000000
H    -0.514000000    -0.751000000    -0.574000000
C     0.689000000    -1.467000000     0.974000000
H     0.018000000    -2.285000000     1.225000000
C     1.813000000    -1.313000000     1.706000000
H     2.021000000    -1.991000000     2.530000000
C     2.672000000    -0.223000000     1.435000000
C     4.029000000    -0.068000000     2.050000000
O     4.416000000    -0.581000000     3.121000000
O     4.892000000     0.255000000     1.320000000
O     5.528000000    -2.150000000     0.163000000
H     5.903000000    -2.282000000     1.034000000
H     5.319000000    -1.216000000     0.132000000
O     4.522000000    -1.449000000     8.270000000
H     4.037000000    -0.644000000     8.452000000
H     4.806000000    -1.357000000     7.360000000
O     6.401000000     1.268000000     3.565000000
H     5.552000000     0.829000000     3.515000000
H     6.198000000     2.147000000     3.884000000
O     7.055000000    -4.763000000     2.744000000
H     7.989000000    -4.582000000     2.847000000
H     6.668000000    -3.913000000     2.533000000
O     3.310000000    -3.763000000     0.027000000
H     4.062000000    -3.194000000     0.190000000
H     2.599000000    -3.161000000    -0.195000000
O     4.225000000    -5.904000000    -1.227000000
H     5.105000000    -5.709000000    -0.905000000
H     3.695000000    -5.158000000    -0.946000000
O     6.583000000    -1.940000000     2.722000000
H     7.306000000    -1.554000000     3.216000000
H     5.830000000    -1.386000000     2.926000000
O     7.259000000     0.574000000     0.418000000
H     6.344000000     0.509000000     0.692000000
H     7.760000000     0.422000000     1.219000000
O     8.332000000     3.168000000     0.280000000
H     7.783000000     2.618000000     0.840000000
H     8.994000000     2.571000000    -0.068000000
O     9.023000000     0.045000000     3.439000000
H     8.428000000     0.548000000     3.995000000
H     9.332000000    -0.666000000     4.001000000
O     5.286000000    -1.819000000     5.528000000
H     5.043000000    -1.282000000     4.774000000
H     5.025000000    -2.707000000     5.284000000
O     6.974000000     4.171000000     4.821000000
H     6.701000000     4.229000000     5.736000000
H     7.840000000     3.765000000     4.854000000
O     8.192000000     2.377000000    -3.184000000
H     8.025000000     1.553000000    -2.727000000
H     9.118000000     2.335000000    -3.424000000
O     3.350000000    -5.644000000     2.137000000
H     2.805000000    -5.226000000     1.470000000
H     3.837000000    -4.922000000     2.534000000
O     7.634000000    -1.163000000     7.307000000
H     7.413000000    -0.231000000     7.316000000
H     6.872000000    -1.585000000     6.912000000
O     6.800000000    -2.890000000    -2.024000000
H     6.154000000    -2.623000000    -1.370000000
H     7.420000000    -3.434000000    -1.539000000
O     6.428000000     1.262000000     6.944000000
H     6.970000000     1.792000000     6.360000000
H     5.583000000     1.712000000     6.960000000
O     8.062000000    -0.269000000    -2.198000000
H     7.732000000    -0.140000000    -1.308000000
H     7.767000000    -1.148000000    -2.437000000
O     4.405000000    -4.310000000     5.876000000
H     4.721000000    -5.092000000     5.424000000
H     3.790000000    -4.643000000     6.530000000
