215
-1447.73436
C    -0.786000000    -1.401000000     4.976000000
H    -1.543000000    -2.107000000     4.643000000
C    -0.868000000    -0.055000000     4.584000000
C     0.100000000     0.810000000     5.016000000
H     0.088000000     1.844000000     4.681000000
C    -1.964000000     0.499000000     3.620000000
O    -3.043000000    -0.385000000     3.490000000
H    -1.472000000     0.564000000     2.638000000
O    -2.398000000     1.836000000     3.916000000
C    -2.593000000     2.702000000     2.822000000
C    -1.538000000     3.511000000     2.588000000
H    -0.678000000     3.436000000     3.248000000
C    -1.506000000     4.236000000     1.383000000
O    -0.398000000     4.939000000     1.110000000
C    -2.501000000     4.141000000     0.462000000
C    -2.461000000     4.898000000    -0.851000000
H    -3.489000000     5.089000000    -1.166000000
C    -1.815000000     4.031000000    -1.883000000
C    -2.584000000     3.274000000    -2.717000000
H    -3.670000000     3.258000000    -2.681000000
H    -1.984000000     5.880000000    -0.883000000
C    -3.604000000     3.346000000     0.743000000
H    -4.428000000     3.362000000     0.034000000
C    -3.598000000     2.500000000     1.837000000
C    -4.707000000     1.471000000     2.134000000
H    -5.578000000     1.743000000     1.535000000
H    -4.919000000     1.482000000     3.206000000
C    -4.391000000     0.093000000     1.591000000
C    -4.943000000    -0.371000000     0.442000000
H    -5.541000000     0.301000000    -0.168000000
C    -3.604000000    -0.751000000     2.354000000
C    -3.310000000    -2.048000000     1.955000000
H    -2.635000000    -2.627000000     2.580000000
C    -3.859000000    -2.480000000     0.724000000
O    -3.419000000    -3.699000000     0.158000000
C    -2.295000000    -3.629000000    -0.750000000
C    -1.214000000    -4.687000000    -0.551000000
C    -0.490000000    -5.295000000    -1.618000000
H    -0.836000000    -5.101000000    -2.631000000
C    -0.842000000    -5.056000000     0.758000000
H    -1.309000000    -4.532000000     1.588000000
O    -2.857000000    -3.702000000    -2.118000000
H    -1.813000000    -2.648000000    -0.622000000
C    -4.633000000    -1.641000000    -0.090000000
C    -5.024000000    -2.031000000    -1.493000000
H    -5.924000000    -1.496000000    -1.804000000
H    -5.187000000    -3.094000000    -1.683000000
C    -3.901000000    -1.637000000    -2.464000000
C    -3.896000000    -0.404000000    -3.033000000
H    -4.737000000     0.257000000    -2.841000000
C    -2.880000000    -2.508000000    -2.747000000
C    -1.840000000    -2.140000000    -3.570000000
H    -0.993000000    -2.782000000    -3.796000000
C    -1.851000000    -0.858000000    -4.123000000
O    -0.806000000    -0.456000000    -4.795000000
C     0.202000000     0.285000000    -4.193000000
C     1.604000000    -0.300000000    -4.267000000
C     1.883000000    -1.573000000    -4.727000000
H     1.084000000    -2.223000000    -5.075000000
C     2.678000000     0.491000000    -3.828000000
H     2.537000000     1.505000000    -3.463000000
O     0.143000000     1.664000000    -4.645000000
H     0.004000000     0.333000000    -3.112000000
C    -2.946000000     0.029000000    -3.923000000
C    -2.812000000     1.442000000    -4.470000000
H    -3.849000000     1.779000000    -4.421000000
H    -2.378000000     1.472000000    -5.472000000
C    -1.996000000     2.462000000    -3.651000000
C    -0.565000000     2.538000000    -3.823000000
C     0.232000000     3.314000000    -3.024000000
H     1.316000000     3.257000000    -3.086000000
C    -0.432000000     3.987000000    -2.000000000
O     0.343000000     4.745000000    -1.136000000
C     0.533000000     4.276000000     0.235000000
H     0.346000000     3.203000000     0.389000000
C     1.911000000     4.616000000     0.745000000
C     2.071000000     4.818000000     2.045000000
H     1.263000000     4.824000000     2.772000000
C     2.990000000     4.573000000    -0.142000000
H     2.869000000     4.376000000    -1.204000000
C     4.253000000     4.733000000     0.427000000
O     5.395000000     4.571000000    -0.411000000
C     4.415000000     4.958000000     1.760000000
H     5.423000000     4.945000000     2.168000000
C     3.318000000     4.991000000     2.596000000
O     3.570000000     5.232000000     3.900000000
C     3.045000000     4.501000000     4.912000000
C     2.952000000     3.062000000     4.913000000
H     3.510000000     2.505000000     4.164000000
C     2.303000000     5.234000000     5.840000000
H     2.276000000     6.317000000     5.754000000
C     1.697000000     4.539000000     6.841000000
H     1.193000000     5.077000000     7.640000000
C     1.562000000     3.169000000     6.864000000
H     0.915000000     2.601000000     7.528000000
C     2.213000000     2.480000000     5.898000000
O     2.159000000     1.120000000     5.942000000
C     1.151000000     0.303000000     5.695000000
C     1.211000000    -1.013000000     6.168000000
H     2.095000000    -1.322000000     6.719000000
C     0.215000000    -1.915000000     5.789000000
O     0.413000000    -3.232000000     5.954000000
C    -0.320000000    -4.188000000     5.247000000
C     0.330000000    -4.946000000     4.264000000
H     1.407000000    -4.808000000     4.212000000
C    -1.682000000    -4.433000000     5.424000000
H    -2.171000000    -3.923000000     6.250000000
C    -2.287000000    -5.445000000     4.618000000
H    -3.327000000    -5.692000000     4.816000000
C    -1.590000000    -6.146000000     3.653000000
H    -2.041000000    -7.000000000     3.155000000
C    -0.268000000    -5.908000000     3.437000000
O     0.337000000    -6.461000000     2.296000000
C     0.102000000    -6.051000000     0.983000000
C     0.844000000    -6.544000000    -0.060000000
H     1.627000000    -7.257000000     0.183000000
C     0.517000000    -6.163000000    -1.367000000
O     1.107000000    -6.756000000    -2.431000000
C     1.435000000    -6.088000000    -3.593000000
C     2.296000000    -4.971000000    -3.777000000
H     2.615000000    -4.549000000    -2.827000000
C     0.867000000    -6.615000000    -4.745000000
H     0.147000000    -7.428000000    -4.710000000
C     1.086000000    -5.990000000    -6.014000000
H     0.555000000    -6.345000000    -6.893000000
C     2.031000000    -4.958000000    -6.156000000
H     2.259000000    -4.586000000    -7.152000000
C     2.667000000    -4.488000000    -5.033000000
O     3.492000000    -3.386000000    -5.209000000
C     3.174000000    -2.093000000    -4.783000000
C     4.214000000    -1.299000000    -4.284000000
H     5.218000000    -1.715000000    -4.267000000
C     3.975000000    -0.005000000    -3.816000000
O     5.031000000     0.798000000    -3.325000000
C     4.989000000     2.164000000    -3.183000000
C     4.843000000     3.013000000    -4.223000000
H     4.787000000     2.611000000    -5.232000000
C     4.985000000     4.421000000    -4.021000000
H     4.820000000     5.098000000    -4.856000000
C     5.267000000     4.905000000    -2.733000000
H     5.362000000     5.963000000    -2.502000000
C     5.370000000     4.010000000    -1.675000000
C     5.177000000     2.648000000    -1.907000000
H     5.346000000     1.952000000    -1.089000000
C     2.256000000     0.680000000    -0.019000000
H     2.954000000     1.200000000    -0.669000000
C     0.911000000     0.667000000    -0.487000000
H     0.580000000     1.166000000    -1.395000000
C    -0.016000000    -0.137000000     0.250000000
H    -0.986000000    -0.147000000    -0.148000000
C     0.378000000    -0.781000000     1.383000000
H    -0.331000000    -1.390000000     1.937000000
C     1.779000000    -0.740000000     1.788000000
H     2.006000000    -1.399000000     2.623000000
C     2.741000000     0.044000000     1.140000000
C     4.140000000     0.064000000     1.594000000
O     4.407000000    -0.327000000     2.671000000
O     4.981000000     0.540000000     0.881000000
O     8.694000000    -1.852000000    -0.086000000
H     9.462000000    -2.173000000     0.385000000
H     8.123000000    -1.502000000     0.598000000
O     5.372000000    -1.414000000    -1.049000000
H     6.083000000    -1.120000000    -1.619000000
H     5.203000000    -0.668000000    -0.474000000
O     9.477000000    -4.220000000     2.887000000
H     8.811000000    -3.718000000     3.356000000
H    10.043000000    -4.569000000     3.575000000
O     4.339000000    -0.530000000     5.217000000
H     3.606000000     0.036000000     5.459000000
H     4.368000000    -0.488000000     4.261000000
O     7.447000000     0.370000000     5.382000000
H     6.771000000    -0.245000000     5.667000000
H     7.709000000     0.825000000     6.182000000
O     6.903000000    -3.431000000     4.459000000
H     6.877000000    -4.310000000     4.082000000
H     6.030000000    -3.074000000     4.296000000
O     2.065000000    -2.375000000    -1.242000000
H     1.529000000    -1.774000000    -0.725000000
H     2.428000000    -1.831000000    -1.942000000
O     5.098000000    -5.604000000     0.763000000
H     4.711000000    -6.146000000     0.075000000
H     4.688000000    -4.747000000     0.651000000
O     9.338000000    -0.025000000     3.479000000
H     8.852000000     0.032000000     4.302000000
H     8.668000000    -0.194000000     2.816000000
O     8.217000000    -4.964000000     0.346000000
H     8.416000000    -5.019000000     1.281000000
H     7.669000000    -4.184000000     0.262000000
O     4.652000000    -2.954000000     3.153000000
H     4.531000000    -3.054000000     2.209000000
H     4.269000000    -2.100000000     3.355000000
O     7.173000000     1.864000000     1.271000000
H     7.032000000     2.369000000     2.072000000
H     6.379000000     1.338000000     1.176000000
O     9.631000000     3.237000000     0.662000000
H     8.940000000     2.576000000     0.624000000
H    10.307000000     2.912000000     0.068000000
O     7.050000000    -1.254000000     2.018000000
H     6.236000000    -0.751000000     1.991000000
H     7.001000000    -1.746000000     2.839000000
O     4.519000000    -4.947000000     4.983000000
H     4.492000000    -4.253000000     4.324000000
H     4.400000000    -5.755000000     4.484000000
O     7.124000000     2.806000000     3.748000000
H     6.995000000     1.870000000     3.904000000
H     7.239000000     3.180000000     4.621000000
O     3.954000000    -3.125000000     0.566000000
H     4.566000000    -2.731000000    -0.055000000
H     3.100000000    -3.055000000     0.138000000
O     6.275000000    -1.843000000     7.082000000
H     5.886000000    -1.440000000     7.859000000
H     5.585000000    -1.801000000     6.420000000
O     8.035000000    -0.749000000    -2.537000000
H     7.960000000    -1.137000000    -1.665000000
H     8.602000000     0.012000000    -2.412000000
