215
-1474.34734
C    -2.316000000    -0.039000000     4.992000000
H    -2.995000000    -0.756000000     4.538000000
C    -2.197000000     1.271000000     4.443000000
C    -1.195000000     2.070000000     4.974000000
H    -1.077000000     3.051000000     4.519000000
C    -2.934000000     1.673000000     3.205000000
O    -4.215000000     0.997000000     3.098000000
H    -2.282000000     1.254000000     2.425000000
O    -3.065000000     3.046000000     2.937000000
C    -2.918000000     3.436000000     1.625000000
C    -1.724000000     4.073000000     1.286000000
H    -1.007000000     4.299000000     2.071000000
C    -1.404000000     4.459000000    -0.059000000
O    -0.176000000     5.015000000    -0.230000000
C    -2.366000000     4.258000000    -1.052000000
C    -2.044000000     4.565000000    -2.506000000
H    -2.911000000     4.953000000    -3.045000000
C    -1.199000000     3.541000000    -3.155000000
C    -1.786000000     2.540000000    -3.910000000
H    -2.854000000     2.363000000    -3.812000000
H    -1.403000000     5.447000000    -2.553000000
C    -3.577000000     3.641000000    -0.696000000
H    -4.318000000     3.524000000    -1.483000000
C    -3.830000000     3.196000000     0.639000000
C    -5.183000000     2.551000000     0.945000000
H    -5.965000000     2.746000000     0.208000000
H    -5.561000000     2.799000000     1.938000000
C    -4.909000000     1.029000000     0.804000000
C    -5.041000000     0.395000000    -0.392000000
H    -5.302000000     0.959000000    -1.284000000
C    -4.377000000     0.353000000     1.882000000
C    -4.107000000    -0.976000000     1.773000000
H    -3.829000000    -1.506000000     2.681000000
C    -4.136000000    -1.627000000     0.614000000
O    -3.648000000    -2.874000000     0.601000000
C    -2.391000000    -3.152000000    -0.038000000
C    -1.557000000    -4.077000000     0.816000000
C    -0.286000000    -4.431000000     0.339000000
H     0.071000000    -4.008000000    -0.596000000
C    -2.035000000    -4.551000000     2.021000000
H    -2.961000000    -4.142000000     2.416000000
O    -2.546000000    -3.646000000    -1.370000000
H    -1.827000000    -2.215000000    -0.153000000
C    -4.641000000    -0.936000000    -0.520000000
C    -4.807000000    -1.722000000    -1.911000000
H    -5.553000000    -1.308000000    -2.592000000
H    -5.155000000    -2.738000000    -1.711000000
C    -3.501000000    -1.794000000    -2.664000000
C    -3.304000000    -0.807000000    -3.644000000
H    -4.076000000    -0.061000000    -3.820000000
C    -2.475000000    -2.719000000    -2.401000000
C    -1.268000000    -2.611000000    -3.096000000
H    -0.503000000    -3.359000000    -2.905000000
C    -1.066000000    -1.601000000    -4.047000000
O     0.155000000    -1.587000000    -4.730000000
C     1.074000000    -0.558000000    -4.199000000
C     2.461000000    -1.114000000    -3.909000000
C     2.661000000    -2.448000000    -3.601000000
H     1.841000000    -3.135000000    -3.407000000
C     3.499000000    -0.300000000    -4.191000000
H     3.353000000     0.733000000    -4.496000000
O     1.097000000     0.629000000    -5.016000000
H     0.721000000    -0.204000000    -3.219000000
C    -2.068000000    -0.696000000    -4.329000000
C    -1.913000000     0.514000000    -5.286000000
H    -2.903000000     0.907000000    -5.527000000
H    -1.533000000     0.323000000    -6.292000000
C    -1.040000000     1.611000000    -4.614000000
C     0.349000000     1.641000000    -4.528000000
C     1.004000000     2.668000000    -3.839000000
H     2.084000000     2.781000000    -3.869000000
C     0.211000000     3.662000000    -3.193000000
O     0.789000000     4.502000000    -2.300000000
C     0.709000000     4.098000000    -0.924000000
H     0.256000000     3.098000000    -0.994000000
C     2.112000000     3.878000000    -0.260000000
C     2.181000000     3.311000000     0.994000000
H     1.227000000     3.147000000     1.488000000
C     3.280000000     4.029000000    -1.045000000
H     3.258000000     4.522000000    -2.013000000
C     4.515000000     3.667000000    -0.478000000
O     5.594000000     3.873000000    -1.279000000
C     4.607000000     3.137000000     0.796000000
H     5.541000000     2.703000000     1.143000000
C     3.407000000     2.932000000     1.525000000
O     3.554000000     2.322000000     2.742000000
C     3.074000000     2.980000000     3.872000000
C     2.064000000     2.423000000     4.564000000
H     1.737000000     1.436000000     4.245000000
C     3.607000000     4.200000000     4.206000000
H     4.459000000     4.566000000     3.639000000
C     3.094000000     4.940000000     5.247000000
H     3.372000000     5.942000000     5.564000000
C     2.058000000     4.356000000     5.956000000
H     1.743000000     4.952000000     6.808000000
C     1.577000000     3.095000000     5.648000000
O     0.680000000     2.452000000     6.512000000
C    -0.345000000     1.604000000     6.023000000
C    -0.644000000     0.387000000     6.622000000
H     0.102000000    -0.020000000     7.301000000
C    -1.676000000    -0.447000000     6.148000000
O    -1.899000000    -1.696000000     6.690000000
C    -2.504000000    -2.792000000     6.130000000
C    -1.724000000    -3.647000000     5.311000000
H    -0.825000000    -3.220000000     4.874000000
C    -3.770000000    -3.257000000     6.597000000
H    -4.306000000    -2.779000000     7.413000000
C    -4.247000000    -4.465000000     6.077000000
H    -5.242000000    -4.837000000     6.305000000
C    -3.435000000    -5.336000000     5.355000000
H    -3.686000000    -6.312000000     4.947000000
C    -2.181000000    -4.941000000     4.929000000
O    -1.453000000    -5.749000000     4.073000000
C    -1.119000000    -5.323000000     2.806000000
C     0.146000000    -5.688000000     2.287000000
H     0.850000000    -6.253000000     2.894000000
C     0.528000000    -5.275000000     1.039000000
O     1.704000000    -5.699000000     0.544000000
C     2.091000000    -5.878000000    -0.768000000
C     2.846000000    -4.923000000    -1.420000000
H     3.011000000    -3.946000000    -0.974000000
C     1.916000000    -7.137000000    -1.418000000
H     1.303000000    -7.861000000    -0.886000000
C     2.510000000    -7.403000000    -2.633000000
H     2.445000000    -8.369000000    -3.126000000
C     3.275000000    -6.453000000    -3.248000000
H     3.842000000    -6.656000000    -4.154000000
C     3.314000000    -5.165000000    -2.697000000
O     4.199000000    -4.228000000    -3.273000000
C     3.934000000    -2.894000000    -3.483000000
C     5.025000000    -2.062000000    -3.651000000
H     6.014000000    -2.513000000    -3.614000000
C     4.829000000    -0.738000000    -3.980000000
O     5.927000000     0.098000000    -4.246000000
C     5.812000000     1.468000000    -4.048000000
C     5.866000000     2.333000000    -5.100000000
H     6.097000000     2.052000000    -6.125000000
C     5.739000000     3.663000000    -4.915000000
H     5.954000000     4.288000000    -5.778000000
C     5.705000000     4.227000000    -3.620000000
H     5.792000000     5.298000000    -3.452000000
C     5.569000000     3.376000000    -2.591000000
C     5.527000000     1.998000000    -2.767000000
H     5.376000000     1.376000000    -1.888000000
C     2.249000000    -0.376000000    -0.035000000
H     3.175000000    -0.421000000    -0.602000000
C     1.217000000     0.446000000    -0.536000000
H     1.472000000     1.148000000    -1.326000000
C    -0.038000000     0.357000000     0.012000000
H    -0.850000000     0.960000000    -0.378000000
C    -0.230000000    -0.457000000     1.139000000
H    -1.174000000    -0.330000000     1.664000000
C     0.762000000    -1.236000000     1.670000000
H     0.570000000    -1.889000000     2.518000000
C     2.003000000    -1.239000000     1.056000000
C     3.069000000    -2.152000000     1.601000000
O     2.958000000    -2.520000000     2.754000000
O     4.002000000    -2.538000000     0.908000000
O     8.667000000    -1.048000000    -2.777000000
H     7.967000000    -1.023000000    -2.126000000
H     8.981000000    -1.952000000    -2.758000000
O     3.843000000    -6.882000000     5.997000000
H     3.954000000    -7.699000000     5.511000000
H     3.888000000    -6.198000000     5.329000000
O     6.819000000    -7.464000000     1.335000000
H     6.515000000    -7.276000000     0.448000000
H     6.456000000    -6.756000000     1.868000000
O     5.907000000    -1.072000000     2.171000000
H     5.635000000    -0.160000000     2.068000000
H     5.373000000    -1.553000000     1.539000000
O     4.331000000    -5.481000000     1.977000000
H     4.328000000    -4.744000000     2.588000000
H     3.761000000    -5.200000000     1.260000000
O     2.911000000    -8.123000000     1.986000000
H     3.344000000    -7.304000000     2.227000000
H     3.420000000    -8.455000000     1.246000000
O     7.265000000    -1.016000000     7.320000000
H     6.625000000    -1.007000000     8.032000000
H     6.739000000    -1.116000000     6.526000000
O     7.174000000    -2.740000000     4.134000000
H     7.313000000    -3.353000000     3.411000000
H     6.757000000    -1.981000000     3.728000000
O     5.889000000    -3.599000000    -0.681000000
H     5.334000000    -4.123000000    -1.259000000
H     5.274000000    -3.070000000    -0.172000000
O     7.921000000    -0.168000000     0.107000000
H     8.228000000     0.566000000     0.638000000
H     7.634000000    -0.822000000     0.745000000
O     8.405000000    -3.917000000    -1.417000000
H     7.518000000    -3.667000000    -1.158000000
H     8.385000000    -4.873000000    -1.449000000
O     2.316000000    -1.011000000     4.762000000
H     2.115000000    -1.746000000     5.342000000
H     2.428000000    -1.411000000     3.900000000
O     4.029000000    -3.895000000     4.547000000
H     3.827000000    -3.262000000     3.857000000
H     3.263000000    -4.468000000     4.578000000
O     4.817000000     0.905000000     5.645000000
H     4.144000000     1.245000000     5.055000000
H     4.696000000    -0.045000000     5.624000000
O     6.939000000    -4.515000000     1.934000000
H     7.193000000    -4.265000000     1.046000000
H     5.982000000    -4.518000000     1.918000000
O     6.328000000    -4.584000000     5.991000000
H     6.963000000    -4.095000000     5.468000000
H     5.487000000    -4.413000000     5.568000000
O     1.372000000    -5.062000000     5.555000000
H     0.470000000    -5.139000000     5.243000000
H     1.557000000    -5.907000000     5.965000000
O     1.759000000    -2.632000000     7.166000000
H     1.425000000    -2.265000000     7.985000000
H     1.491000000    -3.550000000     7.188000000
O     4.908000000    -1.791000000     6.188000000
H     4.032000000    -2.026000000     6.494000000
H     5.142000000    -2.487000000     5.574000000
