215
-1437.80632
C    -2.026000000     0.076000000     5.228000000
H    -2.695000000    -0.689000000     4.842000000
C    -1.830000000     1.285000000     4.516000000
C    -0.758000000     2.145000000     4.842000000
H    -0.448000000     2.988000000     4.230000000
C    -2.501000000     1.444000000     3.211000000
O    -3.860000000     0.862000000     3.210000000
H    -1.958000000     1.134000000     2.306000000
O    -2.753000000     2.832000000     3.009000000
C    -2.733000000     3.466000000     1.803000000
C    -1.530000000     3.991000000     1.393000000
H    -0.634000000     3.921000000     2.003000000
C    -1.310000000     4.325000000     0.053000000
O    -0.081000000     4.714000000    -0.304000000
C    -2.292000000     4.127000000    -0.919000000
C    -2.063000000     4.629000000    -2.281000000
H    -3.015000000     4.912000000    -2.735000000
C    -1.497000000     3.577000000    -3.207000000
C    -2.271000000     2.655000000    -3.883000000
H    -3.358000000     2.626000000    -3.865000000
H    -1.618000000     5.625000000    -2.332000000
C    -3.468000000     3.558000000    -0.485000000
H    -4.185000000     3.295000000    -1.257000000
C    -3.764000000     3.233000000     0.900000000
C    -5.032000000     2.394000000     1.132000000
H    -5.735000000     2.607000000     0.325000000
H    -5.603000000     2.696000000     2.013000000
C    -4.793000000     0.860000000     0.981000000
C    -5.023000000     0.151000000    -0.181000000
H    -5.421000000     0.680000000    -1.043000000
C    -4.310000000     0.191000000     2.098000000
C    -4.127000000    -1.197000000     2.070000000
H    -3.677000000    -1.734000000     2.901000000
C    -4.340000000    -1.845000000     0.880000000
O    -3.855000000    -3.135000000     0.721000000
C    -2.563000000    -3.327000000     0.123000000
C    -1.628000000    -4.401000000     0.772000000
C    -0.794000000    -5.284000000     0.072000000
H    -0.771000000    -5.390000000    -1.009000000
C    -1.631000000    -4.446000000     2.138000000
H    -2.294000000    -3.820000000     2.729000000
O    -2.702000000    -3.825000000    -1.194000000
H    -2.059000000    -2.349000000     0.128000000
C    -4.798000000    -1.237000000    -0.206000000
C    -5.061000000    -2.018000000    -1.504000000
H    -5.920000000    -1.583000000    -2.019000000
H    -5.438000000    -2.977000000    -1.142000000
C    -3.814000000    -1.962000000    -2.415000000
C    -3.771000000    -0.875000000    -3.309000000
H    -4.569000000    -0.167000000    -3.520000000
C    -2.722000000    -2.899000000    -2.241000000
C    -1.600000000    -2.699000000    -3.053000000
H    -0.786000000    -3.404000000    -2.904000000
C    -1.580000000    -1.695000000    -3.946000000
O    -0.380000000    -1.577000000    -4.698000000
C     0.456000000    -0.589000000    -4.287000000
C     1.903000000    -0.998000000    -4.114000000
C     2.229000000    -2.052000000    -3.226000000
H     1.514000000    -2.688000000    -2.709000000
C     2.931000000    -0.470000000    -4.894000000
H     2.818000000     0.401000000    -5.535000000
O     0.389000000     0.399000000    -5.283000000
H     0.118000000    -0.315000000    -3.276000000
C    -2.582000000    -0.741000000    -4.081000000
C    -2.522000000     0.375000000    -5.085000000
H    -3.519000000     0.750000000    -5.326000000
H    -2.041000000     0.043000000    -6.008000000
C    -1.650000000     1.554000000    -4.552000000
C    -0.257000000     1.472000000    -4.686000000
C     0.516000000     2.443000000    -4.031000000
H     1.598000000     2.363000000    -3.959000000
C    -0.111000000     3.444000000    -3.320000000
O     0.708000000     4.163000000    -2.436000000
C     0.761000000     3.790000000    -1.080000000
H     0.336000000     2.783000000    -0.953000000
C     2.157000000     3.668000000    -0.497000000
C     2.286000000     3.301000000     0.827000000
H     1.431000000     3.211000000     1.493000000
C     3.291000000     3.764000000    -1.376000000
H     3.200000000     4.027000000    -2.426000000
C     4.534000000     3.335000000    -0.914000000
O     5.710000000     3.271000000    -1.623000000
C     4.666000000     2.987000000     0.402000000
H     5.655000000     2.660000000     0.713000000
C     3.596000000     2.988000000     1.347000000
O     3.750000000     2.736000000     2.719000000
C     3.077000000     3.470000000     3.667000000
C     2.227000000     2.763000000     4.571000000
H     2.141000000     1.680000000     4.545000000
C     3.182000000     4.875000000     3.756000000
H     3.772000000     5.446000000     3.044000000
C     2.453000000     5.487000000     4.744000000
H     2.559000000     6.567000000     4.792000000
C     1.703000000     4.829000000     5.704000000
H     1.294000000     5.352000000     6.565000000
C     1.547000000     3.411000000     5.611000000
O     0.837000000     2.787000000     6.522000000
C    -0.079000000     1.887000000     6.088000000
C    -0.355000000     0.761000000     6.826000000
H     0.167000000     0.556000000     7.758000000
C    -1.214000000    -0.189000000     6.309000000
O    -1.433000000    -1.310000000     6.997000000
C    -1.810000000    -2.581000000     6.551000000
C    -0.982000000    -3.277000000     5.660000000
H    -0.080000000    -2.778000000     5.317000000
C    -3.122000000    -3.106000000     6.832000000
H    -3.752000000    -2.471000000     7.449000000
C    -3.545000000    -4.394000000     6.326000000
H    -4.547000000    -4.781000000     6.494000000
C    -2.736000000    -5.056000000     5.433000000
H    -3.025000000    -6.020000000     5.022000000
C    -1.449000000    -4.531000000     5.111000000
O    -0.593000000    -5.197000000     4.227000000
C    -0.717000000    -5.261000000     2.874000000
C     0.278000000    -5.905000000     2.174000000
H     1.118000000    -6.408000000     2.646000000
C     0.252000000    -5.973000000     0.752000000
O     1.233000000    -6.747000000     0.167000000
C     2.073000000    -6.303000000    -0.861000000
C     2.640000000    -5.033000000    -0.824000000
H     2.437000000    -4.326000000    -0.024000000
C     2.412000000    -7.108000000    -1.997000000
H     2.127000000    -8.157000000    -2.029000000
C     3.150000000    -6.577000000    -3.029000000
H     3.391000000    -7.209000000    -3.880000000
C     3.726000000    -5.312000000    -2.976000000
H     4.412000000    -4.989000000    -3.755000000
C     3.437000000    -4.511000000    -1.882000000
O     3.904000000    -3.242000000    -1.874000000
C     3.549000000    -2.342000000    -2.860000000
C     4.558000000    -1.581000000    -3.543000000
H     5.603000000    -1.738000000    -3.290000000
C     4.183000000    -0.764000000    -4.576000000
O     5.214000000    -0.013000000    -5.184000000
C     5.555000000     1.281000000    -4.722000000
C     6.107000000     2.156000000    -5.632000000
H     6.412000000     1.854000000    -6.631000000
C     6.464000000     3.383000000    -5.203000000
H     6.979000000     3.961000000    -5.966000000
C     6.320000000     3.829000000    -3.860000000
H     6.544000000     4.861000000    -3.600000000
C     5.699000000     2.923000000    -3.003000000
C     5.300000000     1.627000000    -3.392000000
H     4.913000000     0.881000000    -2.702000000
C     2.460000000     0.074000000     0.549000000
H     3.436000000     0.378000000     0.178000000
C     1.304000000     0.453000000    -0.036000000
H     1.403000000     1.066000000    -0.929000000
C     0.054000000     0.035000000     0.462000000
H    -0.837000000     0.412000000    -0.069000000
C    -0.046000000    -0.749000000     1.558000000
H    -1.011000000    -1.127000000     1.886000000
C     1.070000000    -1.140000000     2.194000000
H     1.005000000    -1.747000000     3.093000000
C     2.332000000    -0.656000000     1.781000000
C     3.641000000    -1.104000000     2.448000000
O     3.584000000    -1.767000000     3.436000000
O     4.720000000    -1.023000000     1.875000000
O     8.177000000    -1.303000000     5.371000000
H     7.395000000    -0.867000000     5.709000000
H     7.897000000    -1.686000000     4.540000000
O     6.463000000     0.923000000     2.411000000
H     6.380000000     1.263000000     3.302000000
H     5.753000000     0.287000000     2.330000000
O     9.179000000     0.161000000     2.525000000
H     8.223000000     0.146000000     2.579000000
H     9.426000000     1.011000000     2.889000000
O     3.121000000    -4.191000000     2.800000000
H     2.639000000    -4.176000000     3.627000000
H     3.652000000    -3.395000000     2.817000000
O     3.980000000    -6.877000000     2.585000000
H     4.768000000    -6.450000000     2.248000000
H     3.338000000    -6.172000000     2.658000000
O     6.607000000    -2.397000000     3.655000000
H     6.383000000    -1.955000000     2.836000000
H     5.782000000    -2.779000000     3.954000000
O     5.445000000    -3.590000000     0.943000000
H     5.315000000    -3.685000000    -0.001000000
H     5.256000000    -2.669000000     1.119000000
O     6.179000000    -1.024000000    -0.362000000
H     5.573000000    -0.867000000     0.362000000
H     6.562000000    -0.166000000    -0.545000000
O     8.008000000    -2.898000000    -0.997000000
H     7.221000000    -2.386000000    -0.807000000
H     8.499000000    -2.895000000    -0.176000000
O     3.760000000    -0.291000000     5.861000000
H     3.042000000    -0.705000000     6.339000000
H     3.793000000    -0.759000000     5.026000000
O     4.835000000    -5.252000000     5.045000000
H     4.871000000    -5.847000000     4.297000000
H     3.907000000    -5.030000000     5.131000000
O     6.077000000     1.687000000     5.274000000
H     5.556000000     2.442000000     5.548000000
H     5.479000000     0.944000000     5.349000000
O     6.318000000    -5.851000000     1.824000000
H     6.908000000    -6.148000000     1.131000000
H     6.119000000    -4.943000000     1.596000000
O     7.560000000    -4.507000000     5.544000000
H     7.520000000    -3.876000000     4.825000000
H     6.722000000    -4.969000000     5.505000000
O     9.234000000    -2.419000000     1.459000000
H     9.320000000    -2.668000000     2.380000000
H     9.676000000    -1.572000000     1.398000000
O     8.154000000     1.639000000    -0.292000000
H     8.057000000     1.543000000     0.655000000
H     8.530000000     2.511000000    -0.407000000
O     1.859000000    -4.771000000     5.925000000
H     1.153000000    -5.413000000     6.002000000
H     1.577000000    -4.038000000     6.472000000
O     1.713000000    -1.633000000     7.584000000
H     0.798000000    -1.911000000     7.621000000
H     2.169000000    -2.229000000     8.178000000
O     4.591000000     0.736000000     8.373000000
H     4.008000000     0.339000000     9.020000000
H     4.604000000     0.113000000     7.647000000
