215
-1464.55826
C    -2.686000000    -0.838000000     5.111000000
H    -3.555000000    -1.350000000     4.706000000
C    -2.253000000     0.340000000     4.534000000
C    -1.202000000     1.035000000     5.018000000
H    -0.818000000     1.902000000     4.487000000
C    -2.925000000     0.818000000     3.242000000
O    -4.206000000     0.085000000     2.908000000
H    -2.172000000     0.708000000     2.447000000
O    -3.174000000     2.242000000     3.253000000
C    -2.896000000     2.940000000     2.092000000
C    -1.666000000     3.572000000     1.994000000
H    -0.975000000     3.604000000     2.832000000
C    -1.257000000     4.196000000     0.780000000
O     0.022000000     4.687000000     0.710000000
C    -2.194000000     4.310000000    -0.239000000
C    -1.912000000     5.077000000    -1.532000000
H    -2.898000000     5.350000000    -1.913000000
C    -1.143000000     4.179000000    -2.564000000
C    -1.793000000     3.384000000    -3.503000000
H    -2.875000000     3.455000000    -3.573000000
H    -1.490000000     6.062000000    -1.321000000
C    -3.425000000     3.624000000    -0.192000000
H    -4.168000000     3.695000000    -0.983000000
C    -3.745000000     2.922000000     0.961000000
C    -5.077000000     2.089000000     1.010000000
H    -5.868000000     2.546000000     0.411000000
H    -5.601000000     2.087000000     1.967000000
C    -4.871000000     0.616000000     0.696000000
C    -5.020000000     0.216000000    -0.615000000
H    -5.367000000     0.796000000    -1.466000000
C    -4.412000000    -0.309000000     1.651000000
C    -4.184000000    -1.650000000     1.354000000
H    -3.854000000    -2.328000000     2.136000000
C    -4.380000000    -2.053000000     0.083000000
O    -3.909000000    -3.299000000    -0.204000000
C    -2.652000000    -3.360000000    -0.751000000
C    -1.650000000    -4.382000000    -0.153000000
C    -0.847000000    -5.160000000    -0.910000000
H    -0.830000000    -5.047000000    -1.991000000
C    -1.437000000    -4.372000000     1.273000000
H    -1.951000000    -3.750000000     2.001000000
O    -2.708000000    -3.437000000    -2.177000000
H    -2.192000000    -2.385000000    -0.534000000
C    -4.766000000    -1.109000000    -0.955000000
C    -4.826000000    -1.598000000    -2.396000000
H    -5.624000000    -1.010000000    -2.855000000
H    -5.188000000    -2.628000000    -2.412000000
C    -3.509000000    -1.426000000    -3.127000000
C    -3.284000000    -0.244000000    -3.814000000
H    -3.991000000     0.579000000    -3.881000000
C    -2.516000000    -2.313000000    -2.930000000
C    -1.217000000    -2.116000000    -3.490000000
H    -0.475000000    -2.872000000    -3.248000000
C    -1.006000000    -0.910000000    -4.136000000
O     0.230000000    -0.783000000    -4.678000000
C     1.109000000     0.172000000    -3.991000000
C     2.470000000    -0.526000000    -3.796000000
C     2.628000000    -1.894000000    -3.533000000
H     1.741000000    -2.506000000    -3.392000000
C     3.598000000     0.278000000    -4.022000000
H     3.507000000     1.339000000    -4.243000000
O     1.076000000     1.385000000    -4.811000000
H     0.683000000     0.321000000    -2.988000000
C    -2.030000000     0.082000000    -4.344000000
C    -1.772000000     1.402000000    -5.110000000
H    -2.701000000     1.906000000    -5.383000000
H    -1.305000000     1.182000000    -6.072000000
C    -1.065000000     2.442000000    -4.254000000
C     0.322000000     2.414000000    -4.241000000
C     0.959000000     3.288000000    -3.396000000
H     2.044000000     3.275000000    -3.349000000
C     0.272000000     4.047000000    -2.467000000
O     1.022000000     4.684000000    -1.413000000
C     0.977000000     3.993000000    -0.155000000
H     0.576000000     2.973000000    -0.260000000
C     2.375000000     3.906000000     0.566000000
C     2.468000000     3.750000000     1.922000000
H     1.536000000     3.774000000     2.482000000
C     3.515000000     3.874000000    -0.310000000
H     3.320000000     3.866000000    -1.379000000
C     4.754000000     3.650000000     0.301000000
O     5.943000000     3.568000000    -0.465000000
C     4.828000000     3.628000000     1.727000000
H     5.787000000     3.540000000     2.232000000
C     3.712000000     3.638000000     2.545000000
O     3.731000000     3.394000000     3.927000000
C     2.680000000     3.481000000     4.830000000
C     2.125000000     2.343000000     5.340000000
H     2.471000000     1.349000000     5.069000000
C     2.247000000     4.710000000     5.261000000
H     2.745000000     5.587000000     4.856000000
C     1.154000000     4.754000000     6.173000000
H     0.847000000     5.761000000     6.446000000
C     0.485000000     3.612000000     6.653000000
H    -0.259000000     3.707000000     7.440000000
C     1.044000000     2.408000000     6.229000000
O     0.573000000     1.202000000     6.667000000
C    -0.500000000     0.564000000     6.164000000
C    -0.841000000    -0.692000000     6.707000000
H    -0.225000000    -1.158000000     7.472000000
C    -1.974000000    -1.279000000     6.260000000
O    -2.127000000    -2.593000000     6.663000000
C    -2.157000000    -3.699000000     5.857000000
C    -1.223000000    -3.875000000     4.834000000
H    -0.371000000    -3.200000000     4.845000000
C    -3.174000000    -4.624000000     6.014000000
H    -3.915000000    -4.609000000     6.809000000
C    -3.266000000    -5.686000000     5.140000000
H    -4.063000000    -6.397000000     5.344000000
C    -2.271000000    -5.895000000     4.140000000
H    -2.328000000    -6.780000000     3.511000000
C    -1.220000000    -5.030000000     4.048000000
O    -0.232000000    -5.182000000     3.096000000
C    -0.544000000    -5.323000000     1.796000000
C     0.201000000    -6.154000000     0.989000000
H     1.066000000    -6.695000000     1.362000000
C     0.045000000    -6.025000000    -0.358000000
O     0.858000000    -6.831000000    -1.222000000
C     1.487000000    -6.243000000    -2.222000000
C     2.351000000    -5.128000000    -2.121000000
H     2.673000000    -4.821000000    -1.129000000
C     1.253000000    -6.835000000    -3.516000000
H     0.701000000    -7.766000000    -3.614000000
C     1.834000000    -6.312000000    -4.659000000
H     1.650000000    -6.738000000    -5.642000000
C     2.691000000    -5.210000000    -4.495000000
H     3.175000000    -4.791000000    -5.374000000
C     3.063000000    -4.693000000    -3.234000000
O     4.077000000    -3.803000000    -3.206000000
C     3.918000000    -2.426000000    -3.394000000
C     5.041000000    -1.620000000    -3.747000000
H     6.031000000    -2.067000000    -3.721000000
C     4.864000000    -0.253000000    -4.037000000
O     5.898000000     0.604000000    -4.254000000
C     6.006000000     1.874000000    -3.734000000
C     6.499000000     2.917000000    -4.555000000
H     6.680000000     2.771000000    -5.617000000
C     6.686000000     4.167000000    -4.050000000
H     7.162000000     4.934000000    -4.655000000
C     6.667000000     4.346000000    -2.682000000
H     6.880000000     5.319000000    -2.247000000
C     6.130000000     3.343000000    -1.853000000
C     5.784000000     2.110000000    -2.380000000
H     5.242000000     1.392000000    -1.769000000
C     2.514000000    -1.081000000    -0.174000000
H     3.208000000    -1.543000000    -0.871000000
C     1.167000000    -0.898000000    -0.537000000
H     0.696000000    -1.378000000    -1.391000000
C     0.308000000    -0.185000000     0.297000000
H    -0.814000000    -0.154000000     0.214000000
C     0.842000000     0.388000000     1.481000000
H     0.175000000     0.892000000     2.176000000
C     2.191000000     0.234000000     1.805000000
H     2.616000000     0.850000000     2.594000000
C     3.056000000    -0.527000000     0.978000000
C     4.495000000    -0.794000000     1.335000000
O     4.857000000    -0.704000000     2.513000000
O     5.243000000    -1.406000000     0.574000000
O     8.959000000    -1.109000000     5.421000000
H     8.247000000    -1.605000000     5.018000000
H     8.540000000    -0.317000000     5.757000000
O     8.136000000    -4.653000000    -2.116000000
H     7.565000000    -4.058000000    -1.630000000
H     8.865000000    -4.824000000    -1.520000000
O     6.172000000    -3.280000000    -1.019000000
H     5.389000000    -3.798000000    -0.834000000
H     5.927000000    -2.384000000    -0.787000000
O     4.359000000    -0.228000000     7.395000000
H     4.450000000    -0.924000000     8.046000000
H     4.152000000    -0.687000000     6.581000000
O     6.005000000     1.586000000     3.910000000
H     5.514000000     0.897000000     3.463000000
H     5.453000000     2.364000000     3.830000000
O     9.932000000    -1.202000000     2.969000000
H    10.815000000    -0.834000000     2.993000000
H     9.643000000    -1.191000000     3.881000000
O     5.971000000    -3.696000000     1.808000000
H     5.479000000    -2.938000000     1.491000000
H     6.807000000    -3.649000000     1.345000000
O     5.239000000    -5.819000000    -0.025000000
H     6.061000000    -6.287000000     0.125000000
H     5.306000000    -5.036000000     0.521000000
O     1.618000000    -3.016000000     6.929000000
H     1.962000000    -2.125000000     6.866000000
H     1.034000000    -2.995000000     7.687000000
O     6.637000000    -2.213000000     3.970000000
H     6.766000000    -3.028000000     3.484000000
H     6.121000000    -1.663000000     3.381000000
O     7.756000000     0.160000000     0.100000000
H     6.890000000    -0.221000000     0.246000000
H     8.066000000     0.392000000     0.975000000
O     9.301000000     2.594000000    -0.784000000
H     8.414000000     2.411000000    -0.474000000
H     9.861000000     2.020000000    -0.260000000
O     8.288000000     1.396000000     2.391000000
H     7.493000000     1.338000000     2.921000000
H     8.987000000     1.557000000     3.024000000
O     3.352000000    -1.501000000     4.851000000
H     3.984000000    -1.222000000     4.189000000
H     3.354000000    -2.456000000     4.798000000
O     5.245000000    -5.590000000     3.637000000
H     4.512000000    -5.230000000     4.135000000
H     5.497000000    -4.886000000     3.039000000
O     8.686000000    -2.833000000     1.401000000
H     8.356000000    -2.220000000     0.743000000
H     9.171000000    -2.285000000     2.017000000
O     6.859000000     0.853000000     6.330000000
H     6.130000000     0.470000000     6.819000000
H     6.460000000     1.182000000     5.524000000
O     9.293000000    -0.708000000    -2.079000000
H    10.059000000    -0.982000000    -1.574000000
H     8.768000000    -0.200000000    -1.460000000
O     2.873000000    -4.826000000     4.681000000
H     2.677000000    -5.327000000     5.473000000
H     2.094000000    -4.288000000     4.538000000
