215
-1470.54050
C    -1.675000000    -1.368000000     4.924000000
H    -2.214000000    -1.991000000     4.215000000
C    -1.772000000    -0.027000000     4.728000000
C    -1.057000000     0.780000000     5.629000000
H    -1.058000000     1.856000000     5.476000000
C    -2.493000000     0.552000000     3.545000000
O    -3.656000000    -0.325000000     3.204000000
H    -1.724000000     0.664000000     2.767000000
O    -3.010000000     1.883000000     3.840000000
C    -2.904000000     2.800000000     2.674000000
C    -1.766000000     3.631000000     2.581000000
H    -0.970000000     3.428000000     3.293000000
C    -1.526000000     4.404000000     1.476000000
O    -0.281000000     4.993000000     1.398000000
C    -2.402000000     4.347000000     0.406000000
C    -2.125000000     5.044000000    -0.915000000
H    -3.059000000     5.427000000    -1.330000000
C    -1.382000000     4.179000000    -1.865000000
C    -2.059000000     3.431000000    -2.837000000
H    -3.136000000     3.461000000    -2.984000000
H    -1.570000000     5.950000000    -0.662000000
C    -3.576000000     3.625000000     0.525000000
H    -4.358000000     3.594000000    -0.229000000
C    -3.821000000     2.804000000     1.654000000
C    -5.022000000     1.893000000     1.609000000
H    -5.761000000     2.275000000     0.901000000
H    -5.450000000     1.692000000     2.594000000
C    -4.583000000     0.514000000     1.137000000
C    -4.908000000     0.190000000    -0.228000000
H    -5.422000000     0.912000000    -0.857000000
C    -4.008000000    -0.509000000     1.908000000
C    -3.798000000    -1.743000000     1.349000000
H    -3.337000000    -2.463000000     2.020000000
C    -4.028000000    -1.969000000     0.003000000
O    -3.603000000    -3.232000000    -0.428000000
C    -2.417000000    -3.233000000    -1.263000000
C    -1.516000000    -4.401000000    -0.887000000
C    -0.614000000    -4.930000000    -1.823000000
H    -0.577000000    -4.632000000    -2.868000000
C    -1.480000000    -4.839000000     0.454000000
H    -2.215000000    -4.497000000     1.178000000
O    -2.912000000    -3.256000000    -2.625000000
H    -1.917000000    -2.264000000    -1.119000000
C    -4.630000000    -1.067000000    -0.812000000
C    -4.890000000    -1.309000000    -2.302000000
H    -5.773000000    -0.818000000    -2.715000000
H    -5.223000000    -2.348000000    -2.353000000
C    -3.677000000    -1.113000000    -3.123000000
C    -3.445000000     0.147000000    -3.693000000
H    -4.136000000     0.957000000    -3.476000000
C    -2.669000000    -2.053000000    -3.241000000
C    -1.486000000    -1.810000000    -3.883000000
H    -0.663000000    -2.514000000    -3.971000000
C    -1.266000000    -0.497000000    -4.345000000
O    -0.073000000    -0.254000000    -4.965000000
C     0.967000000     0.389000000    -4.177000000
C     2.354000000    -0.229000000    -4.300000000
C     2.566000000    -1.514000000    -4.668000000
H     1.734000000    -2.041000000    -5.129000000
C     3.434000000     0.469000000    -3.724000000
H     3.206000000     1.481000000    -3.398000000
O     0.948000000     1.816000000    -4.399000000
H     0.681000000     0.107000000    -3.153000000
C    -2.241000000     0.518000000    -4.274000000
C    -1.962000000     1.868000000    -4.848000000
H    -2.926000000     2.341000000    -5.046000000
H    -1.344000000     1.810000000    -5.746000000
C    -1.226000000     2.657000000    -3.730000000
C     0.220000000     2.647000000    -3.575000000
C     0.795000000     3.453000000    -2.602000000
H     1.879000000     3.514000000    -2.550000000
C     0.034000000     4.249000000    -1.817000000
O     0.711000000     4.905000000    -0.824000000
C     0.689000000     4.368000000     0.495000000
H     0.266000000     3.353000000     0.481000000
C     2.059000000     4.169000000     1.030000000
C     2.164000000     3.513000000     2.264000000
H     1.330000000     3.342000000     2.940000000
C     3.215000000     4.451000000     0.304000000
H     3.143000000     4.946000000    -0.661000000
C     4.448000000     3.986000000     0.748000000
O     5.604000000     4.205000000    -0.007000000
C     4.623000000     3.437000000     2.009000000
H     5.570000000     3.044000000     2.369000000
C     3.452000000     3.352000000     2.775000000
O     3.632000000     2.887000000     4.051000000
C     2.734000000     2.984000000     5.042000000
C     2.151000000     1.835000000     5.663000000
H     2.495000000     0.858000000     5.333000000
C     2.347000000     4.268000000     5.480000000
H     2.580000000     5.207000000     4.985000000
C     1.457000000     4.454000000     6.493000000
H     1.219000000     5.443000000     6.875000000
C     1.079000000     3.351000000     7.209000000
H     0.591000000     3.487000000     8.170000000
C     1.303000000     2.049000000     6.749000000
O     0.676000000     0.970000000     7.375000000
C    -0.168000000     0.197000000     6.566000000
C    -0.221000000    -1.173000000     6.812000000
H     0.458000000    -1.605000000     7.543000000
C    -0.835000000    -1.970000000     5.828000000
O    -0.760000000    -3.328000000     5.930000000
C    -1.350000000    -4.242000000     5.086000000
C    -0.582000000    -4.739000000     4.078000000
H     0.312000000    -4.177000000     3.820000000
C    -2.587000000    -4.837000000     5.427000000
H    -3.077000000    -4.573000000     6.361000000
C    -3.041000000    -5.847000000     4.660000000
H    -4.000000000    -6.296000000     4.905000000
C    -2.353000000    -6.353000000     3.556000000
H    -2.682000000    -7.255000000     3.048000000
C    -1.070000000    -5.816000000     3.275000000
O    -0.325000000    -6.240000000     2.175000000
C    -0.512000000    -5.787000000     0.849000000
C     0.425000000    -6.361000000    -0.042000000
H     1.119000000    -7.176000000     0.147000000
C     0.333000000    -5.914000000    -1.372000000
O     1.294000000    -6.426000000    -2.198000000
C     1.510000000    -5.827000000    -3.401000000
C     2.676000000    -5.039000000    -3.574000000
H     3.277000000    -4.672000000    -2.746000000
C     0.808000000    -6.205000000    -4.562000000
H     0.021000000    -6.954000000    -4.528000000
C     1.247000000    -5.689000000    -5.771000000
H     0.713000000    -5.931000000    -6.686000000
C     2.312000000    -4.832000000    -5.924000000
H     2.466000000    -4.335000000    -6.878000000
C     3.023000000    -4.509000000    -4.805000000
O     3.985000000    -3.527000000    -4.879000000
C     3.790000000    -2.216000000    -4.504000000
C     4.864000000    -1.461000000    -3.930000000
H     5.787000000    -1.997000000    -3.725000000
C     4.693000000    -0.062000000    -3.644000000
O     5.764000000     0.595000000    -3.091000000
C     5.962000000     1.914000000    -2.851000000
C     6.115000000     2.808000000    -3.883000000
H     6.364000000     2.386000000    -4.853000000
C     6.053000000     4.179000000    -3.630000000
H     6.374000000     4.896000000    -4.381000000
C     5.818000000     4.637000000    -2.297000000
H     5.744000000     5.695000000    -2.062000000
C     5.705000000     3.707000000    -1.268000000
C     5.644000000     2.384000000    -1.596000000
H     5.409000000     1.640000000    -0.839000000
C     1.775000000     0.452000000     0.214000000
H     2.605000000     0.967000000    -0.263000000
C     0.539000000     0.701000000    -0.337000000
H     0.392000000     1.402000000    -1.154000000
C    -0.602000000     0.063000000     0.230000000
H    -1.627000000     0.347000000     0.018000000
C    -0.373000000    -0.828000000     1.318000000
H    -1.240000000    -1.326000000     1.745000000
C     0.920000000    -1.055000000     1.786000000
H     1.065000000    -1.787000000     2.577000000
C     2.059000000    -0.490000000     1.222000000
C     3.370000000    -0.634000000     1.825000000
O     3.585000000    -1.395000000     2.800000000
O     4.357000000    -0.267000000     1.172000000
O     7.049000000     5.393000000     2.551000000
H     7.900000000     4.955000000     2.525000000
H     6.520000000     4.926000000     1.904000000
O     6.257000000    -2.013000000     0.115000000
H     6.633000000    -2.118000000     0.989000000
H     5.636000000    -1.291000000     0.207000000
O     3.813000000    -1.979000000     7.722000000
H     3.577000000    -1.052000000     7.700000000
H     3.585000000    -2.305000000     6.851000000
O     5.175000000    -0.009000000     4.672000000
H     4.629000000    -0.371000000     3.974000000
H     5.414000000     0.864000000     4.360000000
O     8.782000000    -3.522000000     2.891000000
H     9.401000000    -3.527000000     3.620000000
H     8.039000000    -3.010000000     3.211000000
O     3.490000000    -3.901000000     0.654000000
H     2.735000000    -3.465000000     0.260000000
H     4.059000000    -3.186000000     0.938000000
O     5.395000000    -6.041000000    -0.525000000
H     5.847000000    -6.452000000     0.212000000
H     4.959000000    -5.279000000    -0.143000000
O     5.953000000    -2.616000000     3.083000000
H     5.754000000    -3.480000000     3.443000000
H     5.108000000    -2.168000000     3.054000000
O     6.953000000     0.793000000     1.362000000
H     6.102000000     0.379000000     1.503000000
H     7.535000000     0.365000000     1.989000000
O     9.387000000     2.189000000    -0.103000000
H     8.472000000     2.340000000     0.135000000
H     9.423000000     1.261000000    -0.336000000
O     7.955000000     0.098000000     3.860000000
H     7.306000000    -0.442000000     4.311000000
H     8.674000000     0.183000000     4.486000000
O     2.758000000    -2.674000000     5.075000000
H     2.791000000    -2.394000000     4.160000000
H     2.451000000    -3.580000000     5.038000000
O     6.746000000     1.993000000     7.433000000
H     6.594000000     1.132000000     7.044000000
H     7.364000000     2.419000000     6.838000000
O     2.778000000    -6.286000000     2.197000000
H     2.459000000    -6.107000000     3.082000000
H     2.977000000    -5.422000000     1.835000000
O     7.152000000    -5.699000000     3.477000000
H     6.722000000    -6.498000000     3.172000000
H     7.646000000    -5.388000000     2.719000000
O     7.783000000    -3.447000000    -1.900000000
H     7.155000000    -3.058000000    -1.290000000
H     8.610000000    -3.456000000    -1.419000000
O     6.911000000    -1.142000000     6.788000000
H     6.040000000    -1.020000000     6.410000000
H     6.750000000    -1.588000000     7.620000000
O     8.518000000    -0.233000000    -0.963000000
H     8.913000000    -0.958000000    -0.479000000
H     7.583000000    -0.298000000    -0.771000000
O     2.202000000    -5.743000000     4.974000000
H     2.997000000    -6.208000000     5.234000000
H     1.488000000    -6.301000000     5.282000000
