215
-1456.27317
C    -2.623000000    -0.786000000     5.116000000
H    -3.386000000    -1.413000000     4.662000000
C    -2.371000000     0.515000000     4.674000000
C    -1.541000000     1.307000000     5.431000000
H    -1.462000000     2.350000000     5.136000000
C    -2.929000000     0.976000000     3.348000000
O    -4.290000000     0.493000000     3.095000000
H    -2.319000000     0.538000000     2.544000000
O    -2.929000000     2.416000000     3.274000000
C    -2.659000000     3.141000000     2.065000000
C    -1.322000000     3.476000000     1.894000000
H    -0.644000000     3.349000000     2.735000000
C    -0.897000000     4.054000000     0.740000000
O     0.373000000     4.553000000     0.627000000
C    -1.801000000     4.300000000    -0.327000000
C    -1.286000000     5.042000000    -1.638000000
H    -2.089000000     5.546000000    -2.180000000
C    -0.617000000     4.102000000    -2.581000000
C    -1.417000000     3.510000000    -3.507000000
H    -2.492000000     3.659000000    -3.440000000
H    -0.644000000     5.871000000    -1.332000000
C    -3.093000000     3.812000000    -0.114000000
H    -3.760000000     3.787000000    -0.971000000
C    -3.528000000     3.220000000     1.042000000
C    -4.973000000     2.698000000     1.111000000
H    -5.664000000     3.161000000     0.404000000
H    -5.472000000     2.823000000     2.074000000
C    -5.003000000     1.219000000     0.822000000
C    -5.062000000     0.865000000    -0.483000000
H    -5.121000000     1.681000000    -1.199000000
C    -4.547000000     0.243000000     1.775000000
C    -4.427000000    -1.082000000     1.405000000
H    -4.184000000    -1.826000000     2.159000000
C    -4.457000000    -1.416000000     0.087000000
O    -4.092000000    -2.732000000    -0.263000000
C    -2.839000000    -2.912000000    -0.969000000
C    -1.976000000    -4.004000000    -0.339000000
C    -1.322000000    -4.948000000    -1.134000000
H    -1.562000000    -4.983000000    -2.194000000
C    -1.640000000    -3.959000000     0.980000000
H    -2.061000000    -3.150000000     1.571000000
O    -3.035000000    -3.018000000    -2.408000000
H    -2.238000000    -2.020000000    -0.737000000
C    -4.893000000    -0.492000000    -0.823000000
C    -5.049000000    -0.894000000    -2.325000000
H    -5.848000000    -0.327000000    -2.807000000
H    -5.455000000    -1.907000000    -2.337000000
C    -3.706000000    -0.852000000    -3.060000000
C    -3.333000000     0.319000000    -3.804000000
H    -4.042000000     1.135000000    -3.688000000
C    -2.716000000    -1.875000000    -3.035000000
C    -1.543000000    -1.816000000    -3.733000000
H    -0.893000000    -2.687000000    -3.739000000
C    -1.225000000    -0.658000000    -4.436000000
O     0.019000000    -0.622000000    -5.002000000
C     1.061000000     0.147000000    -4.434000000
C     2.364000000    -0.596000000    -4.364000000
C     2.377000000    -1.872000000    -3.800000000
H     1.483000000    -2.393000000    -3.467000000
C     3.594000000     0.041000000    -4.715000000
H     3.571000000     1.062000000    -5.088000000
O     1.191000000     1.435000000    -5.111000000
H     0.737000000     0.292000000    -3.393000000
C    -2.104000000     0.448000000    -4.441000000
C    -1.818000000     1.737000000    -5.203000000
H    -2.695000000     2.366000000    -5.369000000
H    -1.369000000     1.431000000    -6.150000000
C    -0.856000000     2.584000000    -4.353000000
C     0.532000000     2.389000000    -4.389000000
C     1.320000000     3.072000000    -3.516000000
H     2.380000000     2.842000000    -3.446000000
C     0.770000000     3.921000000    -2.495000000
O     1.586000000     4.291000000    -1.447000000
C     1.226000000     3.671000000    -0.152000000
H     0.801000000     2.666000000    -0.298000000
C     2.534000000     3.392000000     0.620000000
C     2.449000000     3.091000000     1.996000000
H     1.530000000     3.271000000     2.548000000
C     3.663000000     3.027000000    -0.072000000
H     3.663000000     3.185000000    -1.147000000
C     4.754000000     2.522000000     0.552000000
O     5.829000000     2.071000000    -0.129000000
C     4.699000000     2.416000000     1.955000000
H     5.600000000     1.986000000     2.384000000
C     3.524000000     2.528000000     2.659000000
O     3.570000000     2.220000000     3.977000000
C     2.685000000     2.748000000     4.931000000
C     1.805000000     1.903000000     5.629000000
H     1.786000000     0.821000000     5.528000000
C     2.698000000     4.118000000     5.184000000
H     3.395000000     4.793000000     4.696000000
C     1.846000000     4.629000000     6.151000000
H     1.938000000     5.667000000     6.458000000
C     0.964000000     3.829000000     6.893000000
H     0.342000000     4.179000000     7.713000000
C     0.959000000     2.436000000     6.578000000
O     0.048000000     1.584000000     7.211000000
C    -0.855000000     0.835000000     6.563000000
C    -1.161000000    -0.440000000     6.996000000
H    -0.658000000    -0.822000000     7.881000000
C    -2.015000000    -1.215000000     6.248000000
O    -2.178000000    -2.536000000     6.670000000
C    -2.166000000    -3.599000000     5.773000000
C    -1.327000000    -3.592000000     4.655000000
H    -0.796000000    -2.683000000     4.386000000
C    -2.935000000    -4.738000000     6.069000000
H    -3.589000000    -4.752000000     6.937000000
C    -2.822000000    -5.849000000     5.280000000
H    -3.394000000    -6.748000000     5.497000000
C    -1.835000000    -5.890000000     4.241000000
H    -1.665000000    -6.791000000     3.658000000
C    -1.189000000    -4.775000000     3.888000000
O    -0.224000000    -4.687000000     2.880000000
C    -0.614000000    -4.779000000     1.557000000
C     0.029000000    -5.696000000     0.746000000
H     0.859000000    -6.287000000     1.126000000
C    -0.385000000    -5.812000000    -0.609000000
O     0.329000000    -6.664000000    -1.383000000
C     1.132000000    -6.255000000    -2.434000000
C     2.054000000    -5.208000000    -2.248000000
H     2.217000000    -4.748000000    -1.277000000
C     0.945000000    -6.737000000    -3.736000000
H     0.268000000    -7.578000000    -3.859000000
C     1.854000000    -6.399000000    -4.728000000
H     1.951000000    -6.887000000    -5.694000000
C     2.744000000    -5.347000000    -4.549000000
H     3.343000000    -4.993000000    -5.384000000
C     2.886000000    -4.746000000    -3.281000000
O     3.593000000    -3.650000000    -2.912000000
C     3.586000000    -2.525000000    -3.623000000
C     4.780000000    -1.796000000    -3.809000000
H     5.759000000    -2.173000000    -3.522000000
C     4.790000000    -0.545000000    -4.446000000
O     5.898000000     0.241000000    -4.481000000
C     6.170000000     1.351000000    -3.712000000
C     6.419000000     2.632000000    -4.304000000
H     6.602000000     2.711000000    -5.373000000
C     6.512000000     3.708000000    -3.424000000
H     6.787000000     4.633000000    -3.923000000
C     6.270000000     3.594000000    -2.061000000
H     6.376000000     4.452000000    -1.402000000
C     6.015000000     2.390000000    -1.509000000
C     5.869000000     1.301000000    -2.334000000
H     5.480000000     0.387000000    -1.892000000
C     1.450000000    -1.775000000    -0.121000000
H     1.947000000    -2.444000000    -0.819000000
C     0.244000000    -1.249000000    -0.548000000
H    -0.122000000    -1.417000000    -1.558000000
C    -0.530000000    -0.455000000     0.324000000
H    -1.535000000    -0.085000000     0.122000000
C     0.049000000    -0.029000000     1.548000000
H    -0.460000000     0.571000000     2.298000000
C     1.334000000    -0.465000000     1.889000000
H     1.815000000     0.008000000     2.742000000
C     2.092000000    -1.295000000     1.039000000
C     3.513000000    -1.635000000     1.332000000
O     4.006000000    -1.315000000     2.396000000
O     4.054000000    -2.562000000     0.736000000
O     9.183000000    -2.451000000    -1.246000000
H     8.254000000    -2.293000000    -1.413000000
H     9.197000000    -3.228000000    -0.687000000
O     6.677000000    -6.164000000     0.473000000
H     6.803000000    -6.122000000     1.421000000
H     7.168000000    -5.416000000     0.133000000
O     3.720000000    -0.118000000     7.559000000
H     4.669000000    -0.226000000     7.616000000
H     3.514000000    -0.292000000     6.641000000
O     6.163000000    -0.198000000     3.785000000
H     5.229000000    -0.343000000     3.635000000
H     6.505000000    -1.061000000     4.018000000
O     4.043000000    -5.102000000     1.343000000
H     3.693000000    -4.230000000     1.159000000
H     4.849000000    -5.150000000     0.830000000
O     2.554000000    -7.182000000     3.019000000
H     3.038000000    -6.391000000     2.785000000
H     2.528000000    -7.695000000     2.212000000
O     3.465000000    -8.138000000     0.501000000
H     4.115000000    -8.541000000     1.078000000
H     3.981000000    -7.620000000    -0.116000000
O     7.647000000    -4.640000000     2.542000000
H     8.202000000    -4.238000000     1.873000000
H     8.247000000    -5.173000000     3.062000000
O     6.100000000    -2.792000000     3.316000000
H     6.413000000    -3.503000000     2.756000000
H     5.351000000    -2.427000000     2.844000000
O     6.391000000    -1.647000000    -0.414000000
H     5.627000000    -2.220000000    -0.346000000
H     6.387000000    -1.146000000     0.402000000
O     7.310000000     0.305000000     1.442000000
H     6.827000000     0.104000000     2.243000000
H     6.775000000     0.964000000     0.999000000
O     3.459000000    -1.469000000     5.127000000
H     3.512000000    -1.433000000     4.172000000
H     2.717000000    -2.047000000     5.304000000
O     4.207000000    -4.724000000     4.789000000
H     3.363000000    -4.430000000     5.132000000
H     4.335000000    -4.208000000     3.993000000
O     6.818000000     1.388000000     5.900000000
H     7.709000000     1.539000000     5.582000000
H     6.429000000     0.801000000     5.252000000
O     6.937000000    -5.959000000     5.288000000
H     6.007000000    -5.868000000     5.079000000
H     7.359000000    -5.239000000     4.818000000
O     9.534000000    -1.329000000     1.361000000
H     8.727000000    -0.837000000     1.211000000
H     9.649000000    -1.316000000     2.311000000
O     9.492000000     0.902000000    -0.851000000
H     9.966000000     0.102000000    -0.626000000
H     8.575000000     0.697000000    -0.669000000
O     1.762000000    -3.821000000     5.900000000
H     1.347000000    -3.508000000     6.704000000
H     1.233000000    -4.573000000     5.635000000
O     6.075000000    -2.682000000     6.698000000
H     5.158000000    -2.921000000     6.829000000
H     6.251000000    -2.899000000     5.783000000
