215
-1447.60972
C    -2.900000000    -0.597000000     4.620000000
H    -3.391000000    -1.312000000     3.965000000
C    -2.677000000     0.695000000     4.171000000
C    -2.032000000     1.564000000     4.978000000
H    -1.934000000     2.621000000     4.745000000
C    -3.265000000     1.059000000     2.781000000
O    -4.419000000     0.235000000     2.500000000
H    -2.412000000     0.916000000     2.101000000
O    -3.596000000     2.498000000     2.769000000
C    -3.225000000     3.239000000     1.656000000
C    -2.067000000     3.991000000     1.713000000
H    -1.554000000     4.116000000     2.663000000
C    -1.547000000     4.490000000     0.510000000
O    -0.209000000     4.921000000     0.437000000
C    -2.311000000     4.395000000    -0.655000000
C    -1.800000000     4.795000000    -2.074000000
H    -2.718000000     4.985000000    -2.634000000
C    -0.806000000     3.842000000    -2.820000000
C    -1.273000000     2.984000000    -3.771000000
H    -2.307000000     2.960000000    -4.105000000
H    -1.256000000     5.735000000    -1.956000000
C    -3.575000000     3.725000000    -0.610000000
H    -4.164000000     3.657000000    -1.521000000
C    -3.975000000     3.052000000     0.513000000
C    -5.197000000     2.110000000     0.409000000
H    -5.900000000     2.414000000    -0.370000000
H    -5.786000000     2.190000000     1.325000000
C    -4.820000000     0.703000000     0.141000000
C    -4.770000000     0.258000000    -1.173000000
H    -5.106000000     0.889000000    -1.991000000
C    -4.599000000    -0.205000000     1.179000000
C    -4.254000000    -1.515000000     0.949000000
H    -4.011000000    -2.207000000     1.751000000
C    -4.194000000    -1.967000000    -0.344000000
O    -3.655000000    -3.201000000    -0.481000000
C    -2.412000000    -3.277000000    -1.195000000
C    -1.496000000    -4.285000000    -0.457000000
C    -0.806000000    -5.240000000    -1.172000000
H    -0.837000000    -5.171000000    -2.256000000
C    -1.420000000    -4.195000000     0.941000000
H    -2.006000000    -3.483000000     1.516000000
O    -2.560000000    -3.546000000    -2.561000000
H    -1.831000000    -2.368000000    -0.979000000
C    -4.513000000    -1.092000000    -1.421000000
C    -4.575000000    -1.537000000    -2.829000000
H    -5.160000000    -0.870000000    -3.465000000
H    -5.022000000    -2.520000000    -2.991000000
C    -3.198000000    -1.390000000    -3.534000000
C    -2.751000000    -0.249000000    -4.204000000
H    -3.413000000     0.612000000    -4.223000000
C    -2.270000000    -2.442000000    -3.342000000
C    -1.058000000    -2.401000000    -4.061000000
H    -0.361000000    -3.214000000    -3.874000000
C    -0.570000000    -1.201000000    -4.598000000
O     0.746000000    -1.025000000    -4.884000000
C     1.581000000    -0.200000000    -4.009000000
C     2.991000000    -0.717000000    -3.622000000
C     3.131000000    -2.123000000    -3.487000000
H     2.260000000    -2.749000000    -3.664000000
C     4.109000000     0.111000000    -3.379000000
H     4.057000000     1.197000000    -3.377000000
O     1.778000000     1.118000000    -4.541000000
H     1.092000000    -0.248000000    -3.025000000
C    -1.469000000    -0.176000000    -4.688000000
C    -1.083000000     1.154000000    -5.415000000
H    -1.899000000     1.574000000    -6.007000000
H    -0.345000000     0.904000000    -6.181000000
C    -0.414000000     2.093000000    -4.396000000
C     0.883000000     2.060000000    -4.056000000
C     1.369000000     2.933000000    -3.084000000
H     2.407000000     2.891000000    -2.763000000
C     0.545000000     3.796000000    -2.424000000
O     1.137000000     4.471000000    -1.341000000
C     0.859000000     3.947000000    -0.019000000
H     0.372000000     2.965000000    -0.103000000
C     2.136000000     3.877000000     0.936000000
C     1.964000000     3.554000000     2.238000000
H     1.001000000     3.363000000     2.705000000
C     3.390000000     3.881000000     0.319000000
H     3.604000000     3.976000000    -0.743000000
C     4.519000000     3.712000000     1.102000000
O     5.796000000     3.616000000     0.495000000
C     4.389000000     3.494000000     2.440000000
H     5.288000000     3.413000000     3.045000000
C     3.095000000     3.395000000     3.015000000
O     2.971000000     3.168000000     4.356000000
C     1.871000000     3.639000000     5.069000000
C     1.065000000     2.639000000     5.561000000
H     1.208000000     1.577000000     5.382000000
C     1.683000000     5.002000000     5.240000000
H     2.349000000     5.731000000     4.787000000
C     0.638000000     5.268000000     6.168000000
H     0.432000000     6.312000000     6.390000000
C    -0.162000000     4.340000000     6.799000000
H    -0.949000000     4.663000000     7.476000000
C     0.105000000     2.986000000     6.527000000
O    -0.803000000     2.013000000     7.045000000
C    -1.478000000     1.153000000     6.196000000
C    -1.773000000    -0.114000000     6.656000000
H    -1.552000000    -0.325000000     7.699000000
C    -2.378000000    -1.072000000     5.844000000
O    -2.603000000    -2.321000000     6.400000000
C    -2.475000000    -3.495000000     5.618000000
C    -1.449000000    -3.608000000     4.648000000
H    -0.747000000    -2.789000000     4.517000000
C    -3.415000000    -4.519000000     5.774000000
H    -4.159000000    -4.327000000     6.543000000
C    -3.195000000    -5.683000000     5.073000000
H    -3.735000000    -6.571000000     5.392000000
C    -2.232000000    -5.830000000     4.060000000
H    -2.196000000    -6.789000000     3.549000000
C    -1.345000000    -4.761000000     3.816000000
O    -0.298000000    -4.816000000     2.934000000
C    -0.555000000    -5.041000000     1.603000000
C     0.327000000    -5.882000000     0.864000000
H     1.076000000    -6.438000000     1.422000000
C     0.120000000    -6.025000000    -0.561000000
O     0.906000000    -6.884000000    -1.285000000
C     1.768000000    -6.479000000    -2.262000000
C     2.645000000    -5.431000000    -2.069000000
H     2.613000000    -4.937000000    -1.101000000
C     1.769000000    -7.134000000    -3.471000000
H     1.310000000    -8.105000000    -3.638000000
C     2.558000000    -6.614000000    -4.501000000
H     2.630000000    -7.220000000    -5.401000000
C     3.405000000    -5.568000000    -4.285000000
H     4.082000000    -5.131000000    -5.015000000
C     3.495000000    -5.032000000    -3.012000000
O     4.400000000    -4.018000000    -2.750000000
C     4.341000000    -2.715000000    -3.047000000
C     5.453000000    -1.874000000    -2.853000000
H     6.429000000    -2.275000000    -2.592000000
C     5.350000000    -0.510000000    -3.043000000
O     6.494000000     0.243000000    -2.847000000
C     6.508000000     1.591000000    -2.522000000
C     6.480000000     2.596000000    -3.471000000
H     6.479000000     2.275000000    -4.509000000
C     6.354000000     3.958000000    -3.137000000
H     6.366000000     4.726000000    -3.906000000
C     6.195000000     4.291000000    -1.852000000
H     6.159000000     5.320000000    -1.506000000
C     6.018000000     3.285000000    -0.864000000
C     6.162000000     1.926000000    -1.221000000
H     6.016000000     1.158000000    -0.466000000
C     2.508000000    -2.062000000    -0.145000000
H     3.079000000    -2.893000000    -0.551000000
C     1.142000000    -1.976000000    -0.572000000
H     0.639000000    -2.630000000    -1.279000000
C     0.358000000    -0.876000000    -0.151000000
H    -0.611000000    -0.754000000    -0.546000000
C     0.890000000     0.060000000     0.741000000
H     0.252000000     0.907000000     0.981000000
C     2.191000000    -0.096000000     1.249000000
H     2.587000000     0.682000000     1.897000000
C     3.012000000    -1.161000000     0.833000000
C     4.423000000    -1.220000000     1.327000000
O     4.843000000    -0.607000000     2.297000000
O     5.060000000    -2.174000000     0.829000000
O     9.849000000    -2.757000000    -1.473000000
H     9.058000000    -2.538000000    -0.982000000
H    10.064000000    -3.648000000    -1.197000000
O     6.129000000    -6.034000000     3.245000000
H     6.013000000    -5.814000000     4.170000000
H     6.512000000    -5.247000000     2.858000000
O     2.956000000    -0.302000000     7.805000000
H     3.744000000    -0.706000000     8.169000000
H     3.028000000    -0.444000000     6.861000000
O     7.163000000     0.208000000     3.000000000
H     7.042000000     0.290000000     3.946000000
H     6.275000000     0.127000000     2.652000000
O     9.906000000     0.446000000     3.909000000
H     9.939000000     1.401000000     3.966000000
H     8.972000000     0.236000000     3.941000000
O     3.964000000    -4.433000000     1.241000000
H     4.244000000    -3.521000000     1.161000000
H     3.772000000    -4.545000000     2.172000000
O     4.283000000    -6.956000000     1.442000000
H     5.223000000    -6.930000000     1.622000000
H     4.002000000    -6.043000000     1.504000000
O     7.600000000    -3.651000000     2.676000000
H     7.838000000    -3.021000000     1.996000000
H     8.427000000    -3.854000000     3.114000000
O     5.551000000    -2.504000000     3.969000000
H     6.128000000    -3.175000000     3.606000000
H     5.393000000    -1.903000000     3.241000000
O     7.774000000    -1.745000000     0.462000000
H     6.865000000    -1.637000000     0.743000000
H     8.146000000    -0.865000000     0.512000000
O     9.164000000     0.776000000     0.905000000
H     9.213000000     1.729000000     0.985000000
H     8.890000000     0.477000000     1.772000000
O     9.113000000    -5.088000000     0.420000000
H     8.220000000    -5.195000000     0.093000000
H     9.041000000    -5.225000000     1.364000000
O     3.603000000    -0.156000000     5.136000000
H     3.785000000     0.158000000     4.250000000
H     3.657000000    -1.109000000     5.068000000
O     2.525000000    -4.897000000     3.709000000
H     1.619000000    -4.808000000     3.412000000
H     2.463000000    -5.416000000     4.511000000
O     6.181000000     1.315000000     5.518000000
H     6.347000000     2.205000000     5.209000000
H     5.320000000     1.095000000     5.162000000
O     6.459000000    -4.722000000    -0.139000000
H     6.473000000    -3.775000000     0.000000000
H     5.533000000    -4.958000000    -0.090000000
O     9.343000000     0.363000000    -1.996000000
H     8.475000000     0.619000000    -1.684000000
H     9.739000000    -0.095000000    -1.254000000
O     2.389000000    -3.004000000     6.456000000
H     1.688000000    -2.434000000     6.772000000
H     1.952000000    -3.833000000     6.259000000
O     5.018000000    -3.902000000     6.348000000
H     4.069000000    -3.819000000     6.263000000
H     5.369000000    -3.178000000     5.829000000
