215
-1483.31366
C    -0.468000000     0.120000000     5.078000000
H    -1.104000000    -0.750000000     4.934000000
C    -0.680000000     1.284000000     4.325000000
C     0.155000000     2.380000000     4.526000000
H     0.026000000     3.269000000     3.914000000
C    -1.878000000     1.410000000     3.312000000
O    -2.939000000     0.449000000     3.692000000
H    -1.458000000     1.245000000     2.309000000
O    -2.381000000     2.750000000     3.291000000
C    -2.673000000     3.179000000     1.987000000
C    -1.748000000     4.085000000     1.367000000
H    -1.014000000     4.536000000     2.030000000
C    -1.860000000     4.440000000     0.058000000
O    -0.839000000     5.076000000    -0.558000000
C    -2.954000000     3.908000000    -0.648000000
C    -3.009000000     4.294000000    -2.128000000
H    -4.055000000     4.404000000    -2.419000000
C    -2.371000000     3.190000000    -2.956000000
C    -3.100000000     2.190000000    -3.490000000
H    -4.157000000     2.127000000    -3.243000000
H    -2.568000000     5.287000000    -2.238000000
C    -3.790000000     2.949000000    -0.082000000
H    -4.451000000     2.417000000    -0.760000000
C    -3.770000000     2.649000000     1.287000000
C    -4.842000000     1.793000000     1.920000000
H    -5.789000000     2.028000000     1.431000000
H    -4.969000000     2.079000000     2.967000000
C    -4.417000000     0.321000000     1.724000000
C    -4.892000000    -0.429000000     0.648000000
H    -5.480000000    -0.033000000    -0.177000000
C    -3.586000000    -0.281000000     2.682000000
C    -3.221000000    -1.619000000     2.539000000
H    -2.516000000    -2.090000000     3.219000000
C    -3.678000000    -2.402000000     1.481000000
O    -3.095000000    -3.653000000     1.327000000
C    -1.990000000    -3.670000000     0.457000000
C    -0.852000000    -4.488000000     1.092000000
C    -0.075000000    -5.345000000     0.207000000
H    -0.337000000    -5.378000000    -0.847000000
C    -0.518000000    -4.392000000     2.393000000
H    -1.103000000    -3.721000000     3.016000000
O    -2.333000000    -4.198000000    -0.844000000
H    -1.661000000    -2.639000000     0.263000000
C    -4.494000000    -1.782000000     0.536000000
C    -4.864000000    -2.518000000    -0.705000000
H    -5.692000000    -2.007000000    -1.200000000
H    -4.976000000    -3.595000000    -0.564000000
C    -3.718000000    -2.434000000    -1.743000000
C    -3.880000000    -1.431000000    -2.662000000
H    -4.725000000    -0.757000000    -2.545000000
C    -2.717000000    -3.354000000    -1.881000000
C    -1.857000000    -3.310000000    -2.953000000
H    -1.035000000    -4.010000000    -3.075000000
C    -1.999000000    -2.203000000    -3.881000000
O    -0.913000000    -1.936000000    -4.750000000
C    -0.002000000    -0.829000000    -4.495000000
C     1.425000000    -1.350000000    -4.742000000
C     1.799000000    -2.625000000    -4.266000000
H     1.049000000    -3.255000000    -3.794000000
C     2.420000000    -0.475000000    -4.918000000
H     2.146000000     0.553000000    -5.141000000
O    -0.332000000     0.268000000    -5.341000000
H    -0.085000000    -0.642000000    -3.414000000
C    -3.048000000    -1.301000000    -3.799000000
C    -3.266000000    -0.108000000    -4.667000000
H    -4.345000000     0.042000000    -4.738000000
H    -2.959000000    -0.323000000    -5.693000000
C    -2.431000000     1.128000000    -4.236000000
C    -1.079000000     1.256000000    -4.587000000
C    -0.333000000     2.312000000    -4.057000000
H     0.723000000     2.507000000    -4.226000000
C    -0.981000000     3.266000000    -3.270000000
O    -0.223000000     4.281000000    -2.656000000
C     0.006000000     4.164000000    -1.256000000
H    -0.313000000     3.136000000    -1.028000000
C     1.492000000     4.342000000    -0.814000000
C     1.791000000     5.145000000     0.287000000
H     1.146000000     5.909000000     0.715000000
C     2.403000000     3.431000000    -1.292000000
H     2.136000000     2.753000000    -2.099000000
C     3.638000000     3.274000000    -0.608000000
O     4.534000000     2.310000000    -0.990000000
C     3.952000000     4.009000000     0.515000000
H     4.897000000     3.913000000     1.044000000
C     3.054000000     4.971000000     0.909000000
O     3.392000000     5.763000000     1.984000000
C     2.627000000     5.774000000     3.150000000
C     2.500000000     4.572000000     3.820000000
H     2.904000000     3.673000000     3.363000000
C     2.396000000     6.953000000     3.779000000
H     2.539000000     7.879000000     3.228000000
C     1.963000000     7.020000000     5.152000000
H     1.772000000     7.978000000     5.630000000
C     1.690000000     5.810000000     5.756000000
H     1.244000000     5.734000000     6.744000000
C     2.004000000     4.643000000     5.137000000
O     1.784000000     3.528000000     5.920000000
C     1.069000000     2.389000000     5.561000000
C     1.277000000     1.199000000     6.317000000
H     2.094000000     1.192000000     7.033000000
C     0.538000000     0.069000000     6.011000000
O     0.796000000    -1.131000000     6.690000000
C     0.277000000    -2.371000000     6.299000000
C     0.943000000    -3.231000000     5.398000000
H     1.843000000    -2.893000000     4.890000000
C    -1.008000000    -2.686000000     6.834000000
H    -1.471000000    -1.934000000     7.468000000
C    -1.574000000    -3.918000000     6.539000000
H    -2.526000000    -4.247000000     6.948000000
C    -0.916000000    -4.777000000     5.706000000
H    -1.327000000    -5.750000000     5.450000000
C     0.356000000    -4.435000000     5.139000000
O     0.898000000    -5.248000000     4.154000000
C     0.537000000    -5.272000000     2.833000000
C     1.333000000    -5.967000000     2.024000000
H     2.113000000    -6.607000000     2.427000000
C     1.084000000    -5.974000000     0.638000000
O     1.871000000    -6.656000000    -0.332000000
C     1.762000000    -6.422000000    -1.730000000
C     2.648000000    -5.523000000    -2.335000000
H     3.421000000    -4.992000000    -1.786000000
C     0.847000000    -7.143000000    -2.500000000
H     0.161000000    -7.865000000    -2.064000000
C     0.843000000    -6.953000000    -3.907000000
H     0.232000000    -7.539000000    -4.589000000
C     1.586000000    -5.923000000    -4.469000000
H     1.580000000    -5.619000000    -5.513000000
C     2.511000000    -5.272000000    -3.726000000
O     3.402000000    -4.386000000    -4.249000000
C     3.131000000    -3.062000000    -4.448000000
C     4.109000000    -2.195000000    -4.856000000
H     5.137000000    -2.510000000    -5.013000000
C     3.715000000    -0.891000000    -4.963000000
O     4.614000000     0.101000000    -5.289000000
C     4.961000000     1.129000000    -4.428000000
C     5.960000000     2.002000000    -4.911000000
H     6.364000000     1.868000000    -5.912000000
C     6.235000000     3.180000000    -4.195000000
H     6.829000000     3.986000000    -4.619000000
C     5.763000000     3.283000000    -2.838000000
H     5.941000000     4.235000000    -2.345000000
C     4.970000000     2.300000000    -2.308000000
C     4.546000000     1.195000000    -3.088000000
H     3.865000000     0.499000000    -2.605000000
C     2.064000000    -1.238000000    -0.340000000
H     2.620000000    -2.137000000    -0.594000000
C     0.801000000    -1.050000000    -0.871000000
H     0.399000000    -1.687000000    -1.655000000
C     0.084000000     0.056000000    -0.548000000
H    -0.876000000     0.216000000    -1.038000000
C     0.544000000     0.984000000     0.400000000
H    -0.019000000     1.874000000     0.666000000
C     1.758000000     0.822000000     1.033000000
H     2.134000000     1.664000000     1.610000000
C     2.577000000    -0.297000000     0.625000000
C     3.893000000    -0.482000000     1.147000000
O     4.384000000     0.390000000     1.864000000
O     4.613000000    -1.406000000     0.773000000
O     5.814000000    -2.724000000    -1.490000000
H     5.603000000    -2.001000000    -0.899000000
H     5.041000000    -3.289000000    -1.463000000
O     4.322000000    -0.983000000     6.061000000
H     4.836000000    -0.591000000     5.355000000
H     4.005000000    -1.809000000     5.696000000
O     6.665000000     2.292000000     6.451000000
H     6.039000000     2.443000000     5.742000000
H     7.074000000     3.145000000     6.594000000
O     6.588000000     1.482000000     1.215000000
H     6.909000000     0.602000000     1.021000000
H     5.660000000     1.456000000     0.982000000
O     6.057000000    -0.204000000     4.103000000
H     6.136000000     0.740000000     4.242000000
H     5.687000000    -0.287000000     3.224000000
O     8.706000000    -3.860000000     1.829000000
H     9.546000000    -4.073000000     2.235000000
H     8.465000000    -4.651000000     1.348000000
O     7.721000000    -1.572000000     5.941000000
H     8.265000000    -0.788000000     5.870000000
H     6.923000000    -1.354000000     5.459000000
O     5.657000000     4.750000000     3.745000000
H     4.901000000     5.072000000     3.256000000
H     5.560000000     3.797000000     3.736000000
O     4.877000000    -4.327000000     0.600000000
H     4.443000000    -4.677000000     1.378000000
H     4.749000000    -3.380000000     0.659000000
O     7.712000000    -4.102000000     4.435000000
H     7.933000000    -3.286000000     4.883000000
H     8.077000000    -4.000000000     3.556000000
O     4.803000000     2.126000000     3.684000000
H     4.069000000     1.921000000     4.263000000
H     4.657000000     1.583000000     2.909000000
O     8.271000000     2.261000000     3.117000000
H     9.016000000     2.367000000     2.527000000
H     7.557000000     1.968000000     2.551000000
O     8.297000000    -2.424000000    -2.131000000
H     8.684000000    -3.295000000    -2.050000000
H     7.387000000    -2.539000000    -1.858000000
O     7.433000000    -5.857000000     0.383000000
H     7.689000000    -5.883000000    -0.538000000
H     6.590000000    -5.404000000     0.385000000
O     7.626000000     3.848000000    -0.525000000
H     7.566000000     4.600000000     0.064000000
H     6.931000000     3.258000000    -0.233000000
O     7.360000000    -1.367000000     1.419000000
H     7.675000000    -2.270000000     1.476000000
H     6.420000000    -1.452000000     1.262000000
O     9.716000000     1.520000000     0.582000000
H     8.790000000     1.714000000     0.434000000
H     9.927000000     0.853000000    -0.071000000
O    10.044000000    -0.404000000    -1.389000000
H     9.390000000    -1.101000000    -1.429000000
H    10.500000000    -0.453000000    -2.229000000
O     9.386000000    -0.292000000     3.139000000
H     8.888000000    -0.629000000     2.394000000
H     8.793000000     0.331000000     3.561000000
