215
-1437.54369
C    -1.773000000    -0.641000000     5.290000000
H    -2.409000000    -1.399000000     4.840000000
C    -1.657000000     0.631000000     4.738000000
C    -0.813000000     1.564000000     5.297000000
H    -0.708000000     2.533000000     4.817000000
C    -2.577000000     0.904000000     3.546000000
O    -3.654000000    -0.039000000     3.322000000
H    -1.925000000     0.717000000     2.680000000
O    -3.130000000     2.195000000     3.451000000
C    -2.898000000     2.820000000     2.231000000
C    -1.757000000     3.555000000     1.982000000
H    -1.019000000     3.729000000     2.761000000
C    -1.645000000     4.035000000     0.669000000
O    -0.512000000     4.764000000     0.379000000
C    -2.674000000     3.988000000    -0.288000000
C    -2.444000000     4.590000000    -1.710000000
H    -3.431000000     4.787000000    -2.134000000
C    -1.584000000     3.828000000    -2.620000000
C    -2.265000000     2.855000000    -3.361000000
H    -3.351000000     2.900000000    -3.374000000
H    -2.022000000     5.587000000    -1.565000000
C    -3.821000000     3.246000000    -0.021000000
H    -4.630000000     3.127000000    -0.737000000
C    -3.906000000     2.696000000     1.241000000
C    -5.078000000     1.747000000     1.496000000
H    -5.915000000     2.146000000     0.919000000
H    -5.404000000     1.846000000     2.534000000
C    -4.586000000     0.257000000     1.159000000
C    -4.992000000    -0.351000000    -0.037000000
H    -5.553000000     0.222000000    -0.770000000
C    -3.890000000    -0.573000000     2.099000000
C    -3.572000000    -1.852000000     1.821000000
H    -3.027000000    -2.492000000     2.510000000
C    -3.865000000    -2.373000000     0.579000000
O    -3.071000000    -3.514000000     0.346000000
C    -1.965000000    -3.301000000    -0.513000000
C    -0.766000000    -4.048000000     0.044000000
C     0.147000000    -4.764000000    -0.719000000
H     0.057000000    -4.570000000    -1.785000000
C    -0.617000000    -4.102000000     1.431000000
H    -1.334000000    -3.674000000     2.126000000
O    -2.414000000    -3.739000000    -1.841000000
H    -1.722000000    -2.228000000    -0.520000000
C    -4.582000000    -1.664000000    -0.370000000
C    -4.787000000    -2.151000000    -1.788000000
H    -5.637000000    -1.611000000    -2.209000000
H    -5.028000000    -3.215000000    -1.838000000
C    -3.541000000    -1.876000000    -2.757000000
C    -3.511000000    -0.624000000    -3.452000000
H    -4.322000000     0.058000000    -3.208000000
C    -2.453000000    -2.745000000    -2.852000000
C    -1.419000000    -2.499000000    -3.754000000
H    -0.540000000    -3.133000000    -3.675000000
C    -1.433000000    -1.314000000    -4.428000000
O    -0.290000000    -1.054000000    -5.089000000
C     0.629000000    -0.219000000    -4.327000000
C     2.077000000    -0.742000000    -4.262000000
C     2.323000000    -2.146000000    -4.326000000
H     1.480000000    -2.832000000    -4.333000000
C     3.177000000     0.140000000    -4.426000000
H     3.094000000     1.219000000    -4.332000000
O     0.623000000     1.170000000    -4.876000000
H     0.294000000    -0.081000000    -3.289000000
C    -2.478000000    -0.359000000    -4.352000000
C    -2.361000000     1.047000000    -4.971000000
H    -3.413000000     1.338000000    -4.997000000
H    -1.941000000     0.993000000    -5.978000000
C    -1.523000000     2.004000000    -4.154000000
C    -0.112000000     2.038000000    -4.082000000
C     0.566000000     2.906000000    -3.298000000
H     1.638000000     2.828000000    -3.135000000
C    -0.180000000     3.856000000    -2.620000000
O     0.499000000     4.559000000    -1.668000000
C     0.514000000     4.041000000    -0.316000000
H     0.190000000     2.989000000    -0.320000000
C     1.892000000     4.021000000     0.371000000
C     2.006000000     4.307000000     1.704000000
H     1.068000000     4.453000000     2.234000000
C     3.035000000     3.742000000    -0.424000000
H     2.964000000     3.639000000    -1.504000000
C     4.252000000     3.700000000     0.197000000
O     5.311000000     3.211000000    -0.483000000
C     4.411000000     3.975000000     1.540000000
H     5.437000000     3.937000000     1.898000000
C     3.313000000     4.299000000     2.318000000
O     3.537000000     4.629000000     3.609000000
C     2.585000000     4.558000000     4.649000000
C     2.414000000     3.313000000     5.212000000
H     3.053000000     2.468000000     4.969000000
C     1.683000000     5.648000000     4.972000000
H     1.822000000     6.583000000     4.435000000
C     0.727000000     5.469000000     5.985000000
H     0.045000000     6.286000000     6.206000000
C     0.630000000     4.196000000     6.592000000
H    -0.057000000     3.916000000     7.387000000
C     1.467000000     3.143000000     6.181000000
O     1.195000000     1.882000000     6.705000000
C     0.055000000     1.134000000     6.293000000
C    -0.079000000    -0.145000000     6.842000000
H     0.592000000    -0.478000000     7.630000000
C    -1.076000000    -0.998000000     6.439000000
O    -0.984000000    -2.312000000     6.880000000
C    -1.172000000    -3.382000000     6.107000000
C    -0.171000000    -3.824000000     5.191000000
H     0.859000000    -3.481000000     5.231000000
C    -2.424000000    -3.966000000     5.965000000
H    -3.201000000    -3.653000000     6.658000000
C    -2.734000000    -5.011000000     5.112000000
H    -3.727000000    -5.450000000     5.065000000
C    -1.723000000    -5.465000000     4.262000000
H    -1.938000000    -6.234000000     3.525000000
C    -0.457000000    -4.811000000     4.282000000
O     0.482000000    -5.198000000     3.313000000
C     0.454000000    -4.913000000     1.975000000
C     1.289000000    -5.657000000     1.132000000
H     2.046000000    -6.279000000     1.603000000
C     1.157000000    -5.546000000    -0.211000000
O     1.880000000    -6.401000000    -1.031000000
C     2.089000000    -6.226000000    -2.320000000
C     2.854000000    -5.142000000    -2.785000000
H     3.180000000    -4.400000000    -2.061000000
C     1.480000000    -7.112000000    -3.263000000
H     0.777000000    -7.896000000    -2.994000000
C     1.658000000    -6.841000000    -4.638000000
H     1.088000000    -7.411000000    -5.367000000
C     2.643000000    -5.900000000    -5.080000000
H     2.793000000    -5.768000000    -6.149000000
C     3.258000000    -5.074000000    -4.127000000
O     3.918000000    -4.060000000    -4.699000000
C     3.648000000    -2.652000000    -4.486000000
C     4.705000000    -1.710000000    -4.561000000
H     5.739000000    -2.042000000    -4.587000000
C     4.477000000    -0.345000000    -4.468000000
O     5.573000000     0.538000000    -4.471000000
C     5.476000000     1.747000000    -3.864000000
C     5.677000000     2.961000000    -4.610000000
H     5.965000000     3.005000000    -5.657000000
C     5.487000000     4.177000000    -4.016000000
H     5.458000000     5.053000000    -4.660000000
C     5.310000000     4.224000000    -2.624000000
H     5.175000000     5.193000000    -2.152000000
C     5.366000000     3.067000000    -1.836000000
C     5.398000000     1.811000000    -2.466000000
H     5.510000000     0.909000000    -1.869000000
C     3.061000000     0.636000000     0.430000000
H     4.049000000     0.971000000     0.125000000
C     2.070000000     0.528000000    -0.557000000
H     2.297000000     0.825000000    -1.577000000
C     0.783000000     0.089000000    -0.199000000
H    -0.065000000    -0.012000000    -0.852000000
C     0.485000000    -0.147000000     1.146000000
H    -0.425000000    -0.553000000     1.580000000
C     1.504000000    -0.045000000     2.104000000
H     1.172000000    -0.377000000     3.084000000
C     2.750000000     0.317000000     1.823000000
C     3.915000000     0.322000000     2.777000000
O     3.668000000    -0.135000000     3.857000000
O     5.046000000     0.411000000     2.393000000
O     6.612000000    -2.173000000    -1.058000000
H     5.863000000    -1.612000000    -0.856000000
H     6.959000000    -2.426000000    -0.203000000
O     9.824000000     0.470000000     1.572000000
H     9.905000000     0.942000000     0.743000000
H     9.249000000     1.019000000     2.105000000
O     9.146000000     1.671000000     5.820000000
H     9.943000000     2.012000000     5.414000000
H     8.453000000     1.863000000     5.188000000
O     4.259000000    -0.672000000     8.212000000
H     3.909000000    -1.135000000     7.451000000
H     4.395000000     0.225000000     7.905000000
O     6.026000000     3.371000000     6.007000000
H     6.627000000     3.869000000     5.452000000
H     5.993000000     2.503000000     5.605000000
O     7.937000000     1.976000000     3.175000000
H     7.112000000     1.560000000     2.926000000
H     7.776000000     2.913000000     3.065000000
O     4.986000000    -3.058000000     6.072000000
H     4.752000000    -3.907000000     6.447000000
H     4.273000000    -2.475000000     6.334000000
O     7.270000000    -1.752000000     4.830000000
H     6.548000000    -2.332000000     5.073000000
H     8.029000000    -2.331000000     4.763000000
O     4.122000000    -2.869000000     3.186000000
H     4.239000000    -3.383000000     3.985000000
H     4.223000000    -1.960000000     3.470000000
O     8.698000000     2.485000000    -0.492000000
H     8.093000000     1.961000000     0.034000000
H     8.862000000     1.952000000    -1.270000000
O     7.020000000    -2.176000000     1.900000000
H     6.089000000    -1.982000000     1.793000000
H     7.249000000    -1.792000000     2.747000000
O     4.672000000    -5.115000000     0.417000000
H     4.464000000    -4.183000000     0.472000000
H     5.064000000    -5.223000000    -0.449000000
O     3.455000000    -2.384000000     0.653000000
H     2.696000000    -1.841000000     0.442000000
H     3.451000000    -2.440000000     1.609000000
O     8.950000000    -3.712000000     0.553000000
H     8.244000000    -3.394000000     1.116000000
H     9.734000000    -3.273000000     0.881000000
O     2.921000000    -1.123000000     6.030000000
H     1.977000000    -1.113000000     5.869000000
H     3.291000000    -0.607000000     5.314000000
O     8.641000000    -0.258000000     7.607000000
H     8.892000000     0.564000000     7.187000000
H     7.783000000    -0.465000000     7.235000000
O     6.164000000     0.753000000     5.162000000
H     6.726000000     0.002000000     4.974000000
H     5.357000000     0.576000000     4.679000000
O     6.919000000     0.517000000     0.509000000
H     7.218000000    -0.371000000     0.703000000
H     6.181000000     0.657000000     1.102000000
O     5.401000000     6.604000000     4.746000000
H     5.057000000     6.266000000     5.572000000
H     5.310000000     5.876000000     4.132000000
