215
-1449.81932
C    -0.571000000     0.067000000     4.529000000
H    -0.886000000    -0.862000000     4.059000000
C    -1.304000000     1.225000000     4.271000000
C    -0.950000000     2.477000000     4.878000000
H    -1.595000000     3.331000000     4.685000000
C    -2.452000000     1.213000000     3.238000000
O    -3.259000000    -0.015000000     3.414000000
H    -1.888000000     1.169000000     2.294000000
O    -3.287000000     2.422000000     3.279000000
C    -3.455000000     2.880000000     1.970000000
C    -2.610000000     3.918000000     1.511000000
H    -1.965000000     4.446000000     2.209000000
C    -2.596000000     4.237000000     0.167000000
O    -1.554000000     4.943000000    -0.348000000
C    -3.413000000     3.476000000    -0.729000000
C    -3.392000000     3.910000000    -2.158000000
H    -4.428000000     3.898000000    -2.505000000
C    -2.545000000     2.964000000    -3.002000000
C    -2.964000000     1.749000000    -3.590000000
H    -4.004000000     1.487000000    -3.412000000
H    -3.032000000     4.940000000    -2.188000000
C    -4.302000000     2.520000000    -0.250000000
H    -4.937000000     2.058000000    -1.001000000
C    -4.383000000     2.240000000     1.081000000
C    -5.268000000     1.061000000     1.503000000
H    -6.144000000     1.005000000     0.853000000
H    -5.617000000     1.207000000     2.527000000
C    -4.539000000    -0.270000000     1.302000000
C    -4.747000000    -1.038000000     0.165000000
H    -5.447000000    -0.764000000    -0.621000000
C    -3.687000000    -0.702000000     2.309000000
C    -3.200000000    -1.992000000     2.250000000
H    -2.413000000    -2.139000000     2.984000000
C    -3.447000000    -2.849000000     1.164000000
O    -2.622000000    -3.992000000     1.155000000
C    -1.440000000    -3.906000000     0.224000000
C    -0.240000000    -4.628000000     0.719000000
C     0.652000000    -5.218000000    -0.159000000
H     0.390000000    -5.242000000    -1.214000000
C     0.006000000    -4.687000000     2.060000000
H    -0.657000000    -4.297000000     2.829000000
O    -1.880000000    -4.481000000    -1.107000000
H    -1.177000000    -2.870000000    -0.038000000
C    -4.196000000    -2.351000000     0.093000000
C    -4.466000000    -3.167000000    -1.131000000
H    -5.481000000    -3.014000000    -1.504000000
H    -4.308000000    -4.205000000    -0.831000000
C    -3.406000000    -2.854000000    -2.168000000
C    -3.595000000    -1.799000000    -3.065000000
H    -4.463000000    -1.145000000    -3.067000000
C    -2.220000000    -3.633000000    -2.175000000
C    -1.200000000    -3.364000000    -3.089000000
H    -0.246000000    -3.883000000    -3.113000000
C    -1.400000000    -2.340000000    -3.973000000
O    -0.236000000    -2.009000000    -4.670000000
C     0.467000000    -0.814000000    -4.251000000
C     1.976000000    -1.069000000    -4.340000000
C     2.486000000    -2.429000000    -4.283000000
H     1.833000000    -3.290000000    -4.165000000
C     2.946000000    -0.096000000    -4.318000000
H     2.722000000     0.929000000    -4.034000000
O     0.116000000     0.398000000    -5.006000000
H     0.237000000    -0.641000000    -3.189000000
C    -2.565000000    -1.561000000    -3.984000000
C    -2.768000000    -0.341000000    -4.878000000
H    -3.839000000    -0.184000000    -5.021000000
H    -2.343000000    -0.533000000    -5.866000000
C    -2.121000000     0.915000000    -4.307000000
C    -0.792000000     1.330000000    -4.568000000
C    -0.256000000     2.468000000    -3.918000000
H     0.823000000     2.586000000    -3.854000000
C    -1.156000000     3.245000000    -3.117000000
O    -0.566000000     4.236000000    -2.402000000
C    -0.505000000     4.198000000    -0.943000000
H    -0.609000000     3.163000000    -0.587000000
C     0.837000000     4.541000000    -0.321000000
C     0.898000000     5.361000000     0.775000000
H     0.012000000     5.919000000     1.066000000
C     2.044000000     3.934000000    -0.768000000
H     1.975000000     3.196000000    -1.563000000
C     3.207000000     4.103000000    -0.111000000
O     4.288000000     3.396000000    -0.594000000
C     3.184000000     4.823000000     1.070000000
H     4.045000000     4.956000000     1.719000000
C     2.071000000     5.477000000     1.475000000
O     2.056000000     6.320000000     2.598000000
C     1.311000000     6.102000000     3.706000000
C     1.295000000     4.849000000     4.366000000
H     1.741000000     3.954000000     3.938000000
C     0.616000000     7.142000000     4.215000000
H     0.545000000     8.072000000     3.657000000
C    -0.063000000     7.062000000     5.437000000
H    -0.618000000     7.901000000     5.850000000
C    -0.081000000     5.865000000     6.101000000
H    -0.665000000     5.761000000     7.011000000
C     0.594000000     4.791000000     5.576000000
O     0.607000000     3.634000000     6.275000000
C     0.086000000     2.465000000     5.786000000
C     0.837000000     1.306000000     6.011000000
H     1.586000000     1.305000000     6.800000000
C     0.486000000     0.094000000     5.392000000
O     1.336000000    -1.008000000     5.531000000
C     0.930000000    -2.279000000     5.743000000
C     1.381000000    -3.236000000     4.728000000
H     1.963000000    -2.746000000     3.952000000
C     0.067000000    -2.733000000     6.765000000
H    -0.397000000    -2.068000000     7.488000000
C    -0.177000000    -4.093000000     6.813000000
H    -0.870000000    -4.379000000     7.600000000
C     0.304000000    -5.021000000     5.911000000
H     0.151000000    -6.096000000     5.972000000
C     1.137000000    -4.599000000     4.864000000
O     1.467000000    -5.510000000     3.907000000
C     1.166000000    -5.396000000     2.560000000
C     2.019000000    -6.097000000     1.675000000
H     2.915000000    -6.647000000     1.951000000
C     1.768000000    -5.929000000     0.320000000
O     2.540000000    -6.719000000    -0.519000000
C     2.801000000    -6.442000000    -1.878000000
C     3.258000000    -5.221000000    -2.356000000
H     3.349000000    -4.428000000    -1.618000000
C     2.427000000    -7.487000000    -2.743000000
H     1.928000000    -8.419000000    -2.490000000
C     2.613000000    -7.297000000    -4.099000000
H     2.477000000    -8.119000000    -4.798000000
C     3.140000000    -6.138000000    -4.594000000
H     3.380000000    -6.038000000    -5.649000000
C     3.491000000    -5.114000000    -3.754000000
O     4.205000000    -4.043000000    -4.323000000
C     3.822000000    -2.702000000    -4.373000000
C     4.709000000    -1.688000000    -4.563000000
H     5.779000000    -1.863000000    -4.633000000
C     4.315000000    -0.348000000    -4.546000000
O     5.248000000     0.658000000    -4.598000000
C     5.081000000     1.866000000    -3.991000000
C     5.141000000     3.012000000    -4.775000000
H     5.363000000     3.102000000    -5.835000000
C     4.974000000     4.236000000    -4.204000000
H     4.990000000     5.113000000    -4.845000000
C     4.672000000     4.365000000    -2.846000000
H     4.520000000     5.314000000    -2.339000000
C     4.569000000     3.199000000    -1.971000000
C     4.841000000     1.950000000    -2.577000000
H     4.757000000     1.072000000    -1.941000000
C     2.231000000    -0.345000000    -0.030000000
H     2.814000000    -0.925000000    -0.741000000
C     0.887000000    -0.167000000    -0.291000000
H     0.388000000    -0.673000000    -1.114000000
C     0.112000000     0.663000000     0.531000000
H    -0.906000000     0.677000000     0.312000000
C     0.764000000     1.502000000     1.424000000
H     0.186000000     2.315000000     1.854000000
C     2.150000000     1.399000000     1.523000000
H     2.584000000     2.165000000     2.159000000
C     2.938000000     0.456000000     0.839000000
C     4.426000000     0.286000000     0.974000000
O     5.089000000     1.043000000     1.654000000
O     5.070000000    -0.547000000     0.331000000
O     4.810000000    -2.401000000    -1.406000000
H     4.997000000    -1.676000000    -0.809000000
H     4.518000000    -1.978000000    -2.213000000
O     4.411000000    -0.586000000     5.076000000
H     4.682000000    -0.756000000     5.978000000
H     3.470000000    -0.760000000     5.072000000
O     7.290000000     1.779000000     0.429000000
H     7.595000000     0.919000000     0.139000000
H     6.566000000     1.588000000     1.025000000
O     6.778000000    -0.676000000     3.076000000
H     6.176000000    -0.272000000     2.451000000
H     6.877000000    -0.023000000     3.769000000
O     4.367000000    -3.712000000     5.544000000
H     5.258000000    -4.027000000     5.696000000
H     4.404000000    -3.295000000     4.683000000
O     7.653000000    -3.195000000     5.931000000
H     8.111000000    -3.358000000     6.756000000
H     7.315000000    -2.304000000     6.016000000
O     6.195000000     3.690000000     5.928000000
H     5.986000000     4.621000000     5.852000000
H     5.629000000     3.264000000     5.284000000
O     8.639000000     3.344000000     2.299000000
H     9.415000000     3.689000000     1.857000000
H     8.232000000     2.767000000     1.653000000
O     5.473000000    -2.752000000     1.852000000
H     5.838000000    -2.078000000     2.424000000
H     4.936000000    -2.269000000     1.224000000
O     8.570000000    -2.853000000     2.979000000
H     8.309000000    -3.687000000     2.587000000
H     7.760000000    -2.345000000     3.022000000
O     4.585000000     2.083000000     4.254000000
H     4.504000000     1.158000000     4.485000000
H     5.029000000     2.081000000     3.407000000
O     8.028000000     5.968000000     2.415000000
H     7.830000000     5.097000000     2.760000000
H     8.959000000     6.091000000     2.597000000
O     8.214000000     1.066000000     4.814000000
H     9.102000000     0.734000000     4.680000000
H     8.308000000     2.018000000     4.784000000
O     5.646000000    -5.142000000    -0.057000000
H     5.208000000    -4.794000000    -0.833000000
H     5.388000000    -4.551000000     0.650000000
O     8.139000000     2.688000000    -2.060000000
H     7.900000000     2.440000000    -1.167000000
H     7.412000000     3.235000000    -2.359000000
O     7.662000000    -0.753000000    -0.344000000
H     7.822000000    -1.663000000    -0.591000000
H     6.724000000    -0.718000000    -0.152000000
O    10.013000000     0.198000000    -1.452000000
H     9.274000000    -0.075000000    -0.909000000
H     9.802000000    -0.128000000    -2.327000000
O     9.974000000    -0.023000000     1.693000000
H     9.471000000    -0.778000000     1.391000000
H     9.527000000     0.258000000     2.492000000
O     7.169000000    -0.458000000     6.746000000
H     7.401000000     0.170000000     6.062000000
H     6.809000000     0.080000000     7.452000000
