215
-1469.03126
C    -0.180000000     0.478000000     4.690000000
H    -0.547000000    -0.494000000     4.368000000
C    -1.006000000     1.558000000     4.293000000
C    -0.568000000     2.838000000     4.652000000
H    -1.282000000     3.657000000     4.632000000
C    -2.253000000     1.389000000     3.436000000
O    -2.955000000     0.205000000     3.832000000
H    -1.799000000     1.272000000     2.441000000
O    -3.026000000     2.614000000     3.336000000
C    -3.373000000     2.999000000     2.044000000
C    -2.415000000     3.772000000     1.384000000
H    -1.662000000     4.278000000     1.984000000
C    -2.413000000     3.929000000     0.016000000
O    -1.348000000     4.572000000    -0.530000000
C    -3.465000000     3.316000000    -0.738000000
C    -3.613000000     3.619000000    -2.206000000
H    -4.683000000     3.536000000    -2.412000000
C    -2.721000000     2.658000000    -3.016000000
C    -3.329000000     1.457000000    -3.485000000
H    -4.357000000     1.168000000    -3.278000000
H    -3.329000000     4.647000000    -2.439000000
C    -4.421000000     2.540000000    -0.076000000
H    -5.229000000     2.045000000    -0.608000000
C    -4.348000000     2.276000000     1.316000000
C    -5.079000000     1.137000000     1.952000000
H    -6.075000000     1.022000000     1.519000000
H    -5.299000000     1.431000000     2.981000000
C    -4.384000000    -0.195000000     1.882000000
C    -4.694000000    -1.024000000     0.819000000
H    -5.470000000    -0.809000000     0.090000000
C    -3.342000000    -0.574000000     2.784000000
C    -2.811000000    -1.802000000     2.707000000
H    -2.038000000    -2.142000000     3.391000000
C    -3.231000000    -2.696000000     1.665000000
O    -2.498000000    -3.842000000     1.629000000
C    -1.456000000    -4.021000000     0.674000000
C    -0.283000000    -4.661000000     1.361000000
C     0.549000000    -5.542000000     0.680000000
H     0.309000000    -5.637000000    -0.376000000
C    -0.061000000    -4.389000000     2.728000000
H    -0.637000000    -3.679000000     3.317000000
O    -1.970000000    -4.581000000    -0.579000000
H    -1.148000000    -2.998000000     0.412000000
C    -4.116000000    -2.268000000     0.634000000
C    -4.527000000    -3.107000000    -0.506000000
H    -5.511000000    -2.859000000    -0.910000000
H    -4.696000000    -4.082000000    -0.044000000
C    -3.537000000    -3.068000000    -1.658000000
C    -3.745000000    -2.103000000    -2.681000000
H    -4.605000000    -1.438000000    -2.661000000
C    -2.290000000    -3.768000000    -1.678000000
C    -1.362000000    -3.555000000    -2.713000000
H    -0.463000000    -4.158000000    -2.815000000
C    -1.653000000    -2.677000000    -3.761000000
O    -0.665000000    -2.395000000    -4.651000000
C     0.113000000    -1.293000000    -4.339000000
C     1.561000000    -1.536000000    -4.442000000
C     2.094000000    -2.589000000    -3.618000000
H     1.492000000    -3.311000000    -3.071000000
C     2.405000000    -0.747000000    -5.210000000
H     2.062000000     0.090000000    -5.813000000
O    -0.298000000    -0.119000000    -5.079000000
H    -0.185000000    -1.137000000    -3.292000000
C    -2.826000000    -1.877000000    -3.764000000
C    -3.154000000    -0.789000000    -4.801000000
H    -4.224000000    -0.598000000    -4.909000000
H    -2.821000000    -0.950000000    -5.828000000
C    -2.527000000     0.455000000    -4.174000000
C    -1.171000000     0.768000000    -4.442000000
C    -0.536000000     1.930000000    -3.886000000
H     0.526000000     2.153000000    -3.948000000
C    -1.366000000     2.883000000    -3.297000000
O    -0.755000000     3.964000000    -2.710000000
C    -0.432000000     3.841000000    -1.303000000
H    -0.473000000     2.806000000    -0.934000000
C     0.995000000     4.288000000    -1.028000000
C     1.214000000     4.943000000     0.147000000
H     0.406000000     5.306000000     0.776000000
C     2.059000000     3.746000000    -1.763000000
H     1.866000000     3.047000000    -2.573000000
C     3.391000000     4.092000000    -1.414000000
O     4.476000000     3.488000000    -2.041000000
C     3.577000000     4.781000000    -0.179000000
H     4.564000000     5.096000000     0.150000000
C     2.521000000     5.194000000     0.551000000
O     2.860000000     5.911000000     1.679000000
C     1.990000000     6.158000000     2.808000000
C     1.817000000     5.045000000     3.619000000
H     2.369000000     4.147000000     3.353000000
C     1.377000000     7.408000000     3.018000000
H     1.551000000     8.271000000     2.381000000
C     0.630000000     7.593000000     4.218000000
H     0.147000000     8.531000000     4.480000000
C     0.456000000     6.490000000     5.044000000
H    -0.159000000     6.581000000     5.936000000
C     1.111000000     5.290000000     4.775000000
O     0.925000000     4.325000000     5.721000000
C     0.585000000     3.070000000     5.357000000
C     1.453000000     1.978000000     5.676000000
H     2.371000000     2.112000000     6.244000000
C     1.018000000     0.661000000     5.404000000
O     1.823000000    -0.406000000     5.705000000
C     1.321000000    -1.662000000     6.027000000
C     1.782000000    -2.696000000     5.259000000
H     2.410000000    -2.475000000     4.400000000
C     0.330000000    -1.884000000     7.018000000
H     0.019000000    -0.964000000     7.505000000
C    -0.237000000    -3.143000000     7.253000000
H    -1.024000000    -3.309000000     7.983000000
C     0.262000000    -4.175000000     6.410000000
H    -0.098000000    -5.198000000     6.484000000
C     1.188000000    -3.964000000     5.417000000
O     1.492000000    -4.989000000     4.585000000
C     1.043000000    -5.064000000     3.297000000
C     1.898000000    -5.895000000     2.564000000
H     2.830000000    -6.266000000     2.982000000
C     1.704000000    -6.106000000     1.229000000
O     2.580000000    -6.867000000     0.469000000
C     2.760000000    -6.548000000    -0.843000000
C     3.330000000    -5.304000000    -1.187000000
H     3.601000000    -4.583000000    -0.420000000
C     2.462000000    -7.448000000    -1.836000000
H     2.210000000    -8.472000000    -1.574000000
C     2.532000000    -7.086000000    -3.169000000
H     2.366000000    -7.800000000    -3.971000000
C     3.039000000    -5.857000000    -3.557000000
H     3.182000000    -5.557000000    -4.592000000
C     3.522000000    -4.994000000    -2.492000000
O     4.067000000    -3.756000000    -2.779000000
C     3.501000000    -2.779000000    -3.565000000
C     4.302000000    -1.868000000    -4.145000000
H     5.374000000    -1.884000000    -3.961000000
C     3.755000000    -0.914000000    -5.021000000
O     4.587000000     0.010000000    -5.573000000
C     4.530000000     1.334000000    -5.109000000
C     4.283000000     2.318000000    -6.118000000
H     4.150000000     2.016000000    -7.154000000
C     4.040000000     3.611000000    -5.715000000
H     3.741000000     4.324000000    -6.479000000
C     4.000000000     4.012000000    -4.385000000
H     3.696000000     5.029000000    -4.150000000
C     4.340000000     3.088000000    -3.402000000
C     4.562000000     1.770000000    -3.751000000
H     4.778000000     1.019000000    -2.996000000
C     2.761000000    -0.494000000    -0.094000000
H     3.279000000    -1.362000000    -0.495000000
C     1.356000000    -0.483000000    -0.050000000
H     0.797000000    -1.204000000    -0.641000000
C     0.733000000     0.660000000     0.452000000
H    -0.380000000     0.735000000     0.335000000
C     1.445000000     1.668000000     1.013000000
H     0.861000000     2.538000000     1.302000000
C     2.864000000     1.610000000     0.987000000
H     3.489000000     2.408000000     1.382000000
C     3.561000000     0.573000000     0.394000000
C     5.040000000     0.580000000     0.276000000
O     5.559000000     1.682000000     0.482000000
O     5.615000000    -0.406000000    -0.038000000
O     6.121000000    -2.758000000    -1.005000000
H     6.273000000    -2.674000000    -1.946000000
H     5.912000000    -1.869000000    -0.716000000
O     5.208000000    -0.167000000     4.320000000
H     5.112000000    -0.861000000     3.668000000
H     4.787000000    -0.517000000     5.105000000
O     5.654000000     6.671000000     2.376000000
H     5.966000000     5.766000000     2.356000000
H     6.379000000     7.165000000     2.760000000
O     8.827000000     3.418000000     1.077000000
H     9.459000000     3.659000000     1.754000000
H     9.148000000     2.583000000     0.737000000
O     6.953000000     1.013000000     2.701000000
H     6.361000000     0.536000000     3.283000000
H     6.439000000     1.163000000     1.908000000
O     8.547000000     1.823000000    -4.467000000
H     9.340000000     2.142000000    -4.036000000
H     7.963000000     1.584000000    -3.747000000
O     8.395000000     2.349000000     4.471000000
H     7.793000000     2.114000000     3.766000000
H     8.682000000     1.510000000     4.832000000
O     8.094000000     4.478000000    -1.288000000
H     7.949000000     5.406000000    -1.101000000
H     7.997000000     4.045000000    -0.439000000
O     4.946000000     3.004000000     4.475000000
H     5.175000000     2.078000000     4.551000000
H     5.025000000     3.195000000     3.540000000
O     6.865000000    -3.003000000     3.938000000
H     7.763000000    -3.326000000     3.861000000
H     6.465000000    -3.206000000     3.092000000
O     4.457000000    -2.073000000     2.236000000
H     3.578000000    -2.211000000     1.883000000
H     4.973000000    -1.778000000     1.486000000
O     5.944000000     3.757000000     1.973000000
H     5.854000000     2.925000000     1.508000000
H     6.868000000     3.987000000     1.874000000
O     7.303000000     1.654000000    -1.899000000
H     6.765000000     1.200000000    -1.250000000
H     7.055000000     2.574000000    -1.815000000
O     8.503000000    -0.541000000     5.134000000
H     9.056000000    -0.430000000     4.361000000
H     7.627000000    -0.700000000     4.782000000
O     7.063000000    -4.322000000     1.093000000
H     6.769000000    -3.875000000     0.300000000
H     7.938000000    -4.643000000     0.876000000
O     8.422000000    -1.171000000     0.133000000
H     7.467000000    -1.119000000     0.153000000
H     8.641000000    -1.197000000    -0.799000000
O     9.751000000    -0.316000000     2.728000000
H    10.204000000    -1.158000000     2.686000000
H     9.033000000    -0.399000000     2.100000000
O     9.971000000     1.369000000    -0.417000000
H     9.123000000     1.014000000    -0.683000000
H    10.361000000     0.678000000     0.120000000
O     8.437000000    -1.130000000    -4.326000000
H     9.066000000    -1.228000000    -3.611000000
H     8.282000000    -0.187000000    -4.382000000
