215
-1448.32601
C    -0.303000000    -0.049000000     5.020000000
H    -0.946000000    -0.888000000     4.766000000
C    -0.542000000     1.158000000     4.379000000
C     0.341000000     2.210000000     4.659000000
H     0.014000000     3.195000000     4.335000000
C    -1.775000000     1.285000000     3.575000000
O    -2.899000000     0.417000000     3.935000000
H    -1.477000000     0.969000000     2.565000000
O    -2.249000000     2.616000000     3.560000000
C    -2.558000000     3.132000000     2.313000000
C    -1.612000000     4.032000000     1.817000000
H    -0.737000000     4.323000000     2.393000000
C    -1.759000000     4.510000000     0.491000000
O    -0.696000000     5.173000000    -0.058000000
C    -2.850000000     4.041000000    -0.264000000
C    -3.054000000     4.496000000    -1.690000000
H    -4.123000000     4.470000000    -1.910000000
C    -2.338000000     3.524000000    -2.645000000
C    -3.082000000     2.423000000    -3.115000000
H    -4.141000000     2.312000000    -2.895000000
H    -2.589000000     5.476000000    -1.812000000
C    -3.824000000     3.198000000     0.293000000
H    -4.615000000     2.806000000    -0.341000000
C    -3.721000000     2.735000000     1.578000000
C    -4.723000000     1.767000000     2.186000000
H    -5.744000000     1.919000000     1.827000000
H    -4.723000000     2.123000000     3.219000000
C    -4.321000000     0.373000000     1.989000000
C    -4.888000000    -0.329000000     0.957000000
H    -5.526000000     0.177000000     0.236000000
C    -3.424000000    -0.229000000     2.877000000
C    -3.156000000    -1.618000000     2.733000000
H    -2.577000000    -2.196000000     3.448000000
C    -3.705000000    -2.375000000     1.679000000
O    -3.249000000    -3.646000000     1.449000000
C    -2.219000000    -3.749000000     0.352000000
C    -1.125000000    -4.753000000     0.864000000
C    -0.583000000    -5.633000000    -0.038000000
H    -1.091000000    -5.814000000    -0.982000000
C    -0.629000000    -4.667000000     2.130000000
H    -1.050000000    -3.895000000     2.769000000
O    -2.951000000    -4.081000000    -0.845000000
H    -1.800000000    -2.738000000     0.237000000
C    -4.594000000    -1.713000000     0.826000000
C    -5.163000000    -2.396000000    -0.414000000
H    -6.136000000    -1.994000000    -0.704000000
H    -5.290000000    -3.476000000    -0.316000000
C    -4.124000000    -2.153000000    -1.622000000
C    -4.240000000    -1.044000000    -2.459000000
H    -4.921000000    -0.227000000    -2.233000000
C    -3.177000000    -3.102000000    -1.788000000
C    -2.259000000    -2.946000000    -2.824000000
H    -1.386000000    -3.588000000    -2.910000000
C    -2.280000000    -1.835000000    -3.636000000
O    -1.248000000    -1.703000000    -4.465000000
C    -0.240000000    -0.685000000    -4.077000000
C     1.171000000    -1.342000000    -4.318000000
C     1.603000000    -2.519000000    -3.709000000
H     0.920000000    -3.032000000    -3.036000000
C     2.147000000    -0.658000000    -5.157000000
H     1.821000000     0.226000000    -5.698000000
O    -0.421000000     0.594000000    -4.857000000
H    -0.399000000    -0.582000000    -2.994000000
C    -3.328000000    -0.883000000    -3.520000000
C    -3.323000000     0.317000000    -4.449000000
H    -4.317000000     0.709000000    -4.673000000
H    -2.902000000    -0.051000000    -5.387000000
C    -2.438000000     1.482000000    -3.912000000
C    -1.080000000     1.594000000    -4.197000000
C    -0.372000000     2.693000000    -3.714000000
H     0.694000000     2.825000000    -3.883000000
C    -0.992000000     3.600000000    -2.877000000
O    -0.214000000     4.523000000    -2.264000000
C     0.178000000     4.338000000    -0.885000000
H    -0.002000000     3.278000000    -0.649000000
C     1.657000000     4.504000000    -0.605000000
C     2.196000000     4.969000000     0.542000000
H     1.659000000     5.467000000     1.345000000
C     2.465000000     3.727000000    -1.440000000
H     1.980000000     3.219000000    -2.270000000
C     3.812000000     3.715000000    -1.239000000
O     4.725000000     3.091000000    -2.122000000
C     4.366000000     4.333000000    -0.150000000
H     5.437000000     4.401000000     0.027000000
C     3.532000000     4.980000000     0.782000000
O     4.100000000     5.501000000     1.914000000
C     3.417000000     5.592000000     3.110000000
C     3.234000000     4.386000000     3.725000000
H     3.674000000     3.458000000     3.369000000
C     2.873000000     6.781000000     3.660000000
H     3.128000000     7.790000000     3.344000000
C     2.197000000     6.666000000     4.850000000
H     1.793000000     7.585000000     5.266000000
C     2.062000000     5.460000000     5.521000000
H     1.550000000     5.410000000     6.479000000
C     2.562000000     4.274000000     4.941000000
O     2.442000000     3.104000000     5.596000000
C     1.480000000     2.051000000     5.472000000
C     1.726000000     0.794000000     6.014000000
H     2.631000000     0.763000000     6.616000000
C     0.840000000    -0.205000000     5.841000000
O     1.221000000    -1.486000000     6.342000000
C     0.446000000    -2.631000000     6.029000000
C     1.003000000    -3.425000000     5.064000000
H     2.013000000    -3.107000000     4.820000000
C    -0.699000000    -3.057000000     6.704000000
H    -1.090000000    -2.456000000     7.521000000
C    -1.207000000    -4.310000000     6.451000000
H    -2.065000000    -4.762000000     6.944000000
C    -0.631000000    -5.068000000     5.436000000
H    -0.991000000    -6.082000000     5.283000000
C     0.495000000    -4.647000000     4.688000000
O     1.047000000    -5.420000000     3.729000000
C     0.361000000    -5.582000000     2.547000000
C     0.892000000    -6.464000000     1.649000000
H     1.643000000    -7.190000000     1.950000000
C     0.478000000    -6.450000000     0.286000000
O     1.112000000    -7.259000000    -0.649000000
C     1.685000000    -6.801000000    -1.765000000
C     2.241000000    -5.554000000    -1.778000000
H     2.110000000    -4.913000000    -0.909000000
C     1.791000000    -7.593000000    -2.870000000
H     1.488000000    -8.632000000    -2.765000000
C     2.419000000    -7.180000000    -4.095000000
H     2.356000000    -7.840000000    -4.957000000
C     2.997000000    -5.926000000    -4.076000000
H     3.422000000    -5.575000000    -5.013000000
C     2.875000000    -5.087000000    -2.962000000
O     3.371000000    -3.805000000    -2.918000000
C     2.961000000    -2.863000000    -3.761000000
C     3.902000000    -2.050000000    -4.361000000
H     4.951000000    -2.328000000    -4.296000000
C     3.450000000    -1.027000000    -5.145000000
O     4.402000000    -0.155000000    -5.668000000
C     4.436000000     1.129000000    -5.215000000
C     4.150000000     2.119000000    -6.100000000
H     4.058000000     1.874000000    -7.155000000
C     4.073000000     3.430000000    -5.698000000
H     3.999000000     4.255000000    -6.402000000
C     4.170000000     3.800000000    -4.353000000
H     4.112000000     4.829000000    -4.008000000
C     4.503000000     2.774000000    -3.445000000
C     4.718000000     1.457000000    -3.831000000
H     5.095000000     0.740000000    -3.106000000
C     2.638000000    -0.681000000    -0.826000000
H     3.226000000    -1.413000000    -1.373000000
C     1.199000000    -0.657000000    -0.791000000
H     0.660000000    -1.408000000    -1.363000000
C     0.551000000     0.245000000    -0.034000000
H    -0.484000000     0.210000000    -0.005000000
C     1.244000000     1.178000000     0.801000000
H     0.690000000     1.809000000     1.492000000
C     2.605000000     1.154000000     0.725000000
H     3.146000000     1.795000000     1.416000000
C     3.315000000     0.185000000     0.002000000
C     4.849000000     0.139000000     0.189000000
O     5.403000000     0.803000000     1.109000000
O     5.523000000    -0.563000000    -0.536000000
O     5.661000000    -3.272000000    -1.194000000
H     5.804000000    -2.327000000    -1.144000000
H     5.156000000    -3.395000000    -1.997000000
O     5.023000000     1.207000000     5.694000000
H     5.179000000     2.137000000     5.857000000
H     5.057000000     0.803000000     6.562000000
O     7.390000000     2.100000000    -0.282000000
H     6.687000000     1.959000000     0.353000000
H     7.421000000     1.289000000    -0.788000000
O     7.641000000    -2.139000000    -4.063000000
H     7.465000000    -2.140000000    -5.004000000
H     7.365000000    -3.007000000    -3.767000000
O     4.219000000    -0.172000000     3.405000000
H     4.391000000     0.500000000     4.065000000
H     4.516000000     0.219000000     2.583000000
O     7.561000000    -5.495000000    -0.862000000
H     6.862000000    -4.863000000    -0.695000000
H     8.008000000    -5.587000000    -0.021000000
O     6.594000000    -3.911000000     2.085000000
H     6.241000000    -4.469000000     2.778000000
H     5.880000000    -3.309000000     1.875000000
O     7.461000000     4.600000000     3.228000000
H     7.298000000     3.659000000     3.298000000
H     6.640000000     5.006000000     3.505000000
O     5.616000000    -2.170000000     4.567000000
H     5.273000000    -1.599000000     3.880000000
H     5.042000000    -2.016000000     5.317000000
O     2.100000000    -1.817000000     2.317000000
H     1.438000000    -1.214000000     1.976000000
H     2.710000000    -1.256000000     2.796000000
O     8.111000000    -0.665000000     0.789000000
H     7.239000000    -0.272000000     0.759000000
H     8.338000000    -0.815000000    -0.129000000
O     6.778000000     1.841000000     3.392000000
H     6.258000000     1.458000000     2.685000000
H     6.152000000     1.974000000     4.104000000
O     8.631000000    -1.738000000     3.468000000
H     7.809000000    -2.115000000     3.779000000
H     8.514000000    -1.656000000     2.522000000
O     3.752000000    -3.976000000     0.876000000
H     4.105000000    -3.500000000     0.123000000
H     3.224000000    -3.328000000     1.342000000
O     8.678000000     4.573000000    -0.011000000
H     8.010000000     3.887000000     0.006000000
H     9.218000000     4.362000000    -0.773000000
O     7.730000000    -0.042000000    -2.115000000
H     7.721000000    -0.610000000    -2.886000000
H     6.961000000    -0.310000000    -1.611000000
O     9.401000000     1.172000000     3.745000000
H     8.542000000     1.571000000     3.608000000
H     9.414000000     0.421000000     3.152000000
O    10.612000000    -0.029000000    -1.309000000
H     9.711000000     0.013000000    -1.629000000
H    11.019000000    -0.721000000    -1.829000000
O     8.383000000     2.587000000    -3.484000000
H     7.973000000     3.254000000    -2.934000000
H     8.162000000     1.758000000    -3.061000000
