215
-1433.26492
C     4.640000000    -0.329000000    -1.514000000
H     4.230000000    -1.301000000    -1.775000000
C     4.601000000     0.151000000    -0.224000000
C     4.978000000     1.471000000     0.071000000
H     4.897000000     1.819000000     1.098000000
C     4.071000000    -0.789000000     0.783000000
O     4.236000000    -2.204000000     0.501000000
H     3.001000000    -0.532000000     0.806000000
O     4.568000000    -0.527000000     2.114000000
C     3.575000000    -0.432000000     3.094000000
C     3.181000000     0.846000000     3.480000000
H     3.475000000     1.783000000     3.014000000
C     2.006000000     0.884000000     4.231000000
O     1.489000000     2.183000000     4.371000000
C     1.322000000    -0.209000000     4.698000000
C    -0.017000000     0.018000000     5.451000000
H    -0.120000000    -0.796000000     6.171000000
C    -1.178000000    -0.040000000     4.439000000
C    -1.988000000    -1.206000000     4.290000000
H    -1.679000000    -2.171000000     4.683000000
H     0.114000000     0.968000000     5.974000000
C     1.822000000    -1.452000000     4.367000000
H     1.318000000    -2.324000000     4.777000000
C     2.975000000    -1.604000000     3.617000000
C     3.457000000    -3.032000000     3.262000000
H     3.018000000    -3.585000000     4.095000000
H     4.543000000    -3.135000000     3.329000000
C     2.884000000    -3.578000000     2.024000000
C     1.688000000    -4.330000000     2.058000000
H     1.356000000    -4.616000000     3.053000000
C     3.221000000    -3.068000000     0.802000000
C     2.554000000    -3.482000000    -0.355000000
H     2.972000000    -3.111000000    -1.288000000
C     1.414000000    -4.304000000    -0.299000000
O     0.807000000    -4.643000000    -1.492000000
C    -0.407000000    -3.957000000    -1.895000000
C    -0.383000000    -3.532000000    -3.372000000
C    -1.526000000    -3.280000000    -4.065000000
H    -2.488000000    -3.351000000    -3.565000000
C     0.892000000    -3.404000000    -3.970000000
H     1.807000000    -3.417000000    -3.383000000
O    -1.534000000    -4.746000000    -1.464000000
H    -0.495000000    -3.068000000    -1.253000000
C     0.940000000    -4.678000000     0.941000000
C    -0.310000000    -5.513000000     1.129000000
H    -0.244000000    -6.005000000     2.101000000
H    -0.242000000    -6.392000000     0.485000000
C    -1.619000000    -4.691000000     0.955000000
C    -2.304000000    -4.149000000     2.066000000
H    -1.945000000    -4.450000000     3.047000000
C    -2.143000000    -4.260000000    -0.318000000
C    -3.266000000    -3.471000000    -0.510000000
H    -3.656000000    -3.255000000    -1.501000000
C    -3.646000000    -2.850000000     0.646000000
O    -4.536000000    -1.814000000     0.521000000
C    -4.163000000    -0.486000000     0.639000000
C    -4.750000000     0.424000000    -0.444000000
C    -5.246000000    -0.038000000    -1.658000000
H    -5.114000000    -1.077000000    -1.949000000
C    -4.854000000     1.778000000    -0.190000000
H    -4.606000000     2.200000000     0.780000000
O    -4.425000000     0.033000000     1.895000000
H    -3.100000000    -0.304000000     0.424000000
C    -3.174000000    -3.156000000     1.942000000
C    -3.785000000    -2.485000000     3.160000000
H    -3.782000000    -3.169000000     4.011000000
H    -4.824000000    -2.185000000     3.015000000
C    -3.039000000    -1.146000000     3.414000000
C    -3.389000000     0.031000000     2.762000000
C    -2.691000000     1.235000000     3.025000000
H    -3.046000000     2.204000000     2.682000000
C    -1.580000000     1.190000000     3.873000000
O    -0.876000000     2.328000000     4.138000000
C     0.344000000     2.423000000     3.388000000
H     0.375000000     1.640000000     2.617000000
C     0.416000000     3.824000000     2.884000000
C     1.597000000     4.528000000     2.827000000
H     2.528000000     4.113000000     3.206000000
C    -0.762000000     4.414000000     2.455000000
H    -1.590000000     3.723000000     2.316000000
C    -0.754000000     5.729000000     1.997000000
O    -1.739000000     6.300000000     1.306000000
C     0.438000000     6.390000000     1.951000000
H     0.477000000     7.351000000     1.445000000
C     1.630000000     5.795000000     2.281000000
O     2.855000000     6.466000000     2.269000000
C     4.079000000     5.854000000     1.832000000
C     4.221000000     4.938000000     0.713000000
H     3.275000000     4.695000000     0.236000000
C     5.237000000     6.098000000     2.599000000
H     5.094000000     6.735000000     3.468000000
C     6.498000000     5.520000000     2.327000000
H     7.358000000     5.708000000     2.965000000
C     6.613000000     4.752000000     1.118000000
H     7.563000000     4.327000000     0.805000000
C     5.438000000     4.446000000     0.395000000
O     5.632000000     3.696000000    -0.714000000
C     5.358000000     2.328000000    -0.946000000
C     5.443000000     1.827000000    -2.236000000
H     5.773000000     2.459000000    -3.057000000
C     4.996000000     0.527000000    -2.519000000
O     4.942000000     0.161000000    -3.875000000
C     4.765000000    -1.112000000    -4.412000000
C     3.520000000    -1.427000000    -4.942000000
H     2.724000000    -0.698000000    -5.071000000
C     5.739000000    -2.121000000    -4.276000000
H     6.711000000    -1.886000000    -3.850000000
C     5.485000000    -3.333000000    -4.766000000
H     6.289000000    -4.065000000    -4.734000000
C     4.269000000    -3.652000000    -5.333000000
H     4.158000000    -4.659000000    -5.725000000
C     3.297000000    -2.680000000    -5.483000000
O     2.086000000    -3.015000000    -6.088000000
C     0.951000000    -3.089000000    -5.335000000
C    -0.212000000    -2.765000000    -5.993000000
H    -0.207000000    -2.378000000    -7.009000000
C    -1.467000000    -2.930000000    -5.400000000
O    -2.548000000    -2.436000000    -6.079000000
C    -3.794000000    -2.303000000    -5.509000000
C    -4.165000000    -1.132000000    -4.943000000
H    -3.457000000    -0.308000000    -4.900000000
C    -4.757000000    -3.250000000    -5.662000000
H    -4.508000000    -4.080000000    -6.318000000
C    -6.040000000    -3.077000000    -5.102000000
H    -6.832000000    -3.821000000    -5.065000000
C    -6.399000000    -1.886000000    -4.535000000
H    -7.359000000    -1.618000000    -4.101000000
C    -5.418000000    -0.921000000    -4.420000000
O    -5.941000000     0.283000000    -3.962000000
C    -5.559000000     0.812000000    -2.700000000
C    -5.404000000     2.226000000    -2.538000000
H    -5.593000000     2.877000000    -3.389000000
C    -5.112000000     2.675000000    -1.228000000
O    -5.087000000     4.053000000    -1.063000000
C    -4.626000000     4.665000000     0.118000000
C    -5.534000000     4.918000000     1.204000000
H    -6.536000000     4.496000000     1.166000000
C    -5.029000000     5.635000000     2.294000000
H    -5.592000000     5.791000000     3.210000000
C    -3.782000000     6.189000000     2.260000000
H    -3.430000000     6.864000000     3.036000000
C    -2.993000000     5.917000000     1.177000000
C    -3.316000000     5.053000000     0.150000000
H    -2.533000000     4.963000000    -0.599000000
C    -0.540000000     0.479000000    -2.141000000
H    -1.151000000     0.135000000    -2.973000000
C    -0.718000000    -0.199000000    -0.901000000
H    -1.383000000    -1.055000000    -0.826000000
C     0.082000000     0.166000000     0.163000000
H    -0.074000000    -0.350000000     1.092000000
C     1.090000000     1.184000000     0.048000000
H     1.645000000     1.407000000     0.956000000
C     1.241000000     1.737000000    -1.193000000
H     1.983000000     2.515000000    -1.355000000
C     0.436000000     1.492000000    -2.291000000
C     0.558000000     2.295000000    -3.633000000
O     1.296000000     3.232000000    -3.693000000
O     0.038000000     1.908000000    -4.638000000
O    -1.211000000     6.283000000    -4.436000000
H    -1.139000000     7.221000000    -4.615000000
H    -2.066000000     6.184000000    -4.018000000
O     5.882000000     5.533000000    -6.042000000
H     5.481000000     5.951000000    -5.280000000
H     5.764000000     4.595000000    -5.889000000
O     3.542000000     2.213000000    -5.178000000
H     3.887000000     1.755000000    -4.411000000
H     2.715000000     2.591000000    -4.878000000
O     5.822000000     2.440000000    -6.338000000
H     5.864000000     2.494000000    -7.293000000
H     4.891000000     2.534000000    -6.134000000
O     1.107000000     7.919000000    -1.019000000
H     1.202000000     8.541000000    -1.740000000
H     0.976000000     7.073000000    -1.446000000
O    -3.860000000     0.771000000    -7.744000000
H    -4.313000000     0.707000000    -6.903000000
H    -2.933000000     0.830000000    -7.512000000
O     0.272000000     0.736000000    -8.877000000
H     1.209000000     0.906000000    -8.973000000
H    -0.030000000     1.402000000    -8.258000000
O    -2.579000000     1.841000000    -5.217000000
H    -2.963000000     2.530000000    -4.675000000
H    -1.636000000     1.917000000    -5.070000000
O     3.431000000     0.043000000    -8.082000000
H     3.989000000     0.696000000    -8.506000000
H     3.294000000     0.383000000    -7.198000000
O     0.479000000     5.534000000    -2.309000000
H    -0.169000000     5.746000000    -2.981000000
H     0.900000000     4.735000000    -2.626000000
O     5.528000000     6.552000000    -3.306000000
H     5.545000000     5.796000000    -2.719000000
H     6.196000000     7.141000000    -2.957000000
O    -1.139000000     8.583000000    -5.642000000
H    -1.950000000     9.084000000    -5.547000000
H    -0.773000000     8.877000000    -6.476000000
O    -4.045000000     6.397000000    -3.815000000
H    -3.969000000     5.640000000    -4.396000000
H    -4.971000000     6.419000000    -3.571000000
O     3.877000000     8.074000000    -5.212000000
H     3.931000000     8.946000000    -4.822000000
H     4.087000000     7.477000000    -4.494000000
O    -3.062000000     7.173000000    -7.651000000
H    -2.514000000     7.070000000    -6.873000000
H    -3.866000000     7.580000000    -7.325000000
O     0.099000000     2.885000000    -7.221000000
H     0.320000000     3.710000000    -6.790000000
H    -0.111000000     2.288000000    -6.503000000
O    -3.288000000     4.739000000    -5.695000000
H    -2.401000000     4.418000000    -5.855000000
H    -3.700000000     4.746000000    -6.560000000
O     0.871000000     4.985000000    -5.676000000
H     1.205000000     4.332000000    -5.061000000
H     0.161000000     5.419000000    -5.202000000
O     2.105000000     6.876000000    -7.167000000
H     1.652000000     6.116000000    -6.802000000
H     2.616000000     7.224000000    -6.437000000
