215
-1431.46330
C    -0.417000000    -0.605000000     4.636000000
H    -1.004000000    -1.407000000     4.195000000
C    -0.906000000     0.701000000     4.632000000
C    -0.221000000     1.783000000     5.310000000
H    -0.490000000     2.791000000     5.005000000
C    -1.985000000     0.937000000     3.583000000
O    -3.036000000    -0.048000000     3.655000000
H    -1.546000000     0.810000000     2.583000000
O    -2.713000000     2.171000000     3.632000000
C    -2.838000000     2.725000000     2.327000000
C    -1.910000000     3.667000000     1.984000000
H    -1.023000000     3.869000000     2.580000000
C    -1.974000000     4.179000000     0.711000000
O    -0.878000000     4.881000000     0.248000000
C    -2.961000000     3.823000000    -0.154000000
C    -3.028000000     4.340000000    -1.512000000
H    -4.102000000     4.417000000    -1.695000000
C    -2.216000000     3.481000000    -2.573000000
C    -2.909000000     2.527000000    -3.281000000
H    -3.987000000     2.449000000    -3.159000000
H    -2.678000000     5.365000000    -1.376000000
C    -3.945000000     2.930000000     0.292000000
H    -4.748000000     2.702000000    -0.404000000
C    -3.980000000     2.489000000     1.616000000
C    -5.029000000     1.513000000     2.057000000
H    -5.992000000     1.700000000     1.576000000
H    -5.298000000     1.485000000     3.115000000
C    -4.499000000     0.114000000     1.701000000
C    -4.973000000    -0.511000000     0.442000000
H    -5.716000000    -0.010000000    -0.173000000
C    -3.549000000    -0.551000000     2.467000000
C    -3.243000000    -1.864000000     2.064000000
H    -2.506000000    -2.389000000     2.667000000
C    -3.693000000    -2.462000000     0.930000000
O    -3.307000000    -3.787000000     0.717000000
C    -2.124000000    -3.948000000    -0.173000000
C    -1.142000000    -4.980000000     0.325000000
C    -0.090000000    -5.366000000    -0.447000000
H    -0.021000000    -5.124000000    -1.505000000
C    -1.192000000    -5.359000000     1.693000000
H    -2.032000000    -5.104000000     2.333000000
O    -2.529000000    -4.145000000    -1.504000000
H    -1.607000000    -2.977000000    -0.196000000
C    -4.565000000    -1.840000000     0.064000000
C    -4.952000000    -2.431000000    -1.287000000
H    -5.887000000    -1.956000000    -1.591000000
H    -5.211000000    -3.489000000    -1.208000000
C    -3.876000000    -2.179000000    -2.286000000
C    -3.925000000    -1.038000000    -3.110000000
H    -4.737000000    -0.322000000    -3.014000000
C    -2.757000000    -3.079000000    -2.362000000
C    -1.757000000    -2.712000000    -3.243000000
H    -0.826000000    -3.273000000    -3.264000000
C    -1.783000000    -1.615000000    -4.074000000
O    -0.706000000    -1.235000000    -4.832000000
C     0.174000000    -0.200000000    -4.331000000
C     1.593000000    -0.609000000    -4.513000000
C     1.995000000    -1.859000000    -4.042000000
H     1.265000000    -2.534000000    -3.603000000
C     2.555000000     0.310000000    -5.014000000
H     2.243000000     1.294000000    -5.354000000
O    -0.040000000     1.000000000    -5.034000000
H     0.031000000    -0.083000000    -3.247000000
C    -2.846000000    -0.734000000    -3.976000000
C    -2.901000000     0.533000000    -4.827000000
H    -3.922000000     0.829000000    -5.077000000
H    -2.415000000     0.332000000    -5.784000000
C    -2.224000000     1.686000000    -4.149000000
C    -0.879000000     1.942000000    -4.419000000
C    -0.297000000     3.020000000    -3.875000000
H     0.761000000     3.218000000    -4.021000000
C    -0.871000000     3.740000000    -2.857000000
O    -0.034000000     4.535000000    -2.032000000
C    -0.003000000     4.090000000    -0.632000000
H    -0.249000000     3.019000000    -0.590000000
C     1.422000000     4.171000000    -0.176000000
C     1.719000000     4.693000000     1.087000000
H     0.918000000     5.035000000     1.738000000
C     2.414000000     3.824000000    -0.998000000
H     2.128000000     3.282000000    -1.896000000
C     3.774000000     3.832000000    -0.558000000
O     4.824000000     3.380000000    -1.306000000
C     4.048000000     4.353000000     0.661000000
H     5.067000000     4.452000000     1.025000000
C     3.054000000     4.753000000     1.541000000
O     3.412000000     5.289000000     2.718000000
C     2.711000000     5.104000000     3.910000000
C     2.689000000     3.904000000     4.571000000
H     3.174000000     3.002000000     4.207000000
C     2.061000000     6.199000000     4.454000000
H     2.207000000     7.184000000     4.019000000
C     1.430000000     6.025000000     5.674000000
H     0.914000000     6.856000000     6.148000000
C     1.328000000     4.801000000     6.309000000
H     0.793000000     4.756000000     7.254000000
C     1.905000000     3.710000000     5.703000000
O     1.792000000     2.547000000     6.405000000
C     0.957000000     1.475000000     5.931000000
C     1.424000000     0.135000000     5.986000000
H     2.301000000    -0.248000000     6.501000000
C     0.681000000    -0.921000000     5.375000000
O     1.153000000    -2.244000000     5.390000000
C     0.391000000    -3.361000000     5.562000000
C     0.392000000    -4.303000000     4.540000000
H     1.016000000    -4.077000000     3.679000000
C    -0.528000000    -3.561000000     6.584000000
H    -0.613000000    -2.804000000     7.360000000
C    -1.311000000    -4.723000000     6.719000000
H    -1.986000000    -4.879000000     7.556000000
C    -1.217000000    -5.726000000     5.784000000
H    -1.824000000    -6.624000000     5.866000000
C    -0.295000000    -5.500000000     4.683000000
O    -0.202000000    -6.430000000     3.633000000
C    -0.198000000    -6.143000000     2.282000000
C     0.899000000    -6.515000000     1.475000000
H     1.598000000    -7.231000000     1.898000000
C     0.897000000    -6.153000000     0.171000000
O     2.001000000    -6.666000000    -0.561000000
C     2.192000000    -6.218000000    -1.869000000
C     3.036000000    -5.100000000    -2.090000000
H     3.261000000    -4.580000000    -1.162000000
C     1.635000000    -6.834000000    -3.028000000
H     0.967000000    -7.690000000    -2.986000000
C     1.855000000    -6.265000000    -4.310000000
H     1.364000000    -6.727000000    -5.163000000
C     2.584000000    -5.149000000    -4.480000000
H     2.819000000    -4.779000000    -5.475000000
C     3.135000000    -4.533000000    -3.371000000
O     3.793000000    -3.341000000    -3.494000000
C     3.332000000    -2.207000000    -4.081000000
C     4.309000000    -1.295000000    -4.529000000
H     5.377000000    -1.499000000    -4.526000000
C     3.894000000    -0.059000000    -5.077000000
O     4.859000000     0.911000000    -5.330000000
C     4.904000000     2.171000000    -4.721000000
C     5.536000000     3.224000000    -5.365000000
H     5.958000000     3.164000000    -6.365000000
C     5.706000000     4.443000000    -4.691000000
H     6.061000000     5.334000000    -5.204000000
C     5.420000000     4.528000000    -3.365000000
H     5.648000000     5.424000000    -2.793000000
C     5.046000000     3.358000000    -2.680000000
C     4.724000000     2.204000000    -3.313000000
H     4.398000000     1.315000000    -2.781000000
C     2.807000000    -0.321000000    -0.765000000
H     3.278000000    -0.897000000    -1.557000000
C     1.426000000    -0.359000000    -0.687000000
H     0.945000000    -0.938000000    -1.471000000
C     0.749000000     0.387000000     0.214000000
H    -0.375000000     0.429000000     0.205000000
C     1.460000000     1.286000000     1.070000000
H     0.893000000     1.912000000     1.753000000
C     2.830000000     1.213000000     1.130000000
H     3.292000000     1.752000000     1.953000000
C     3.541000000     0.382000000     0.234000000
C     5.037000000     0.358000000     0.422000000
O     5.563000000     1.006000000     1.285000000
O     5.642000000    -0.386000000    -0.350000000
O     6.372000000    -2.929000000    -0.229000000
H     6.010000000    -2.056000000    -0.380000000
H     6.471000000    -3.302000000    -1.105000000
O     5.719000000     2.289000000     5.005000000
H     5.346000000     1.856000000     5.773000000
H     5.983000000     3.153000000     5.322000000
O     7.292000000     2.320000000    -0.229000000
H     6.673000000     2.651000000    -0.880000000
H     6.793000000     1.669000000     0.266000000
O     8.449000000    -3.117000000    -2.794000000
H     7.553000000    -3.326000000    -3.059000000
H     8.647000000    -3.748000000    -2.102000000
O     5.081000000    -0.083000000     3.970000000
H     5.193000000     0.801000000     4.320000000
H     5.205000000     0.016000000     3.026000000
O     8.714000000    -2.937000000     0.876000000
H     7.798000000    -2.958000000     0.597000000
H     8.698000000    -3.275000000     1.772000000
O     8.398000000    -4.025000000     3.409000000
H     7.919000000    -3.340000000     3.875000000
H     8.811000000    -4.542000000     4.101000000
O     7.309000000    -1.620000000     4.996000000
H     6.835000000    -0.965000000     4.484000000
H     6.790000000    -1.721000000     5.794000000
O     3.852000000    -2.290000000     5.080000000
H     2.901000000    -2.199000000     5.028000000
H     4.192000000    -1.488000000     4.683000000
O     8.134000000    -0.462000000     1.353000000
H     7.402000000    -0.172000000     0.808000000
H     8.309000000    -1.357000000     1.062000000
O     6.990000000     2.488000000     2.829000000
H     6.324000000     2.261000000     2.180000000
H     6.588000000     2.270000000     3.670000000
O     9.488000000    -0.440000000     3.637000000
H     8.762000000    -0.681000000     4.214000000
H     9.081000000    -0.317000000     2.780000000
O     5.160000000    -3.872000000     2.169000000
H     5.343000000    -3.570000000     1.280000000
H     4.857000000    -3.090000000     2.631000000
O     7.723000000     5.070000000    -0.443000000
H     7.684000000     4.307000000     0.134000000
H     8.378000000     4.840000000    -1.101000000
O     8.658000000     1.910000000    -4.798000000
H     8.203000000     1.120000000    -5.090000000
H     8.722000000     1.811000000    -3.848000000
O     7.532000000     0.205000000    -2.322000000
H     7.422000000    -0.535000000    -2.920000000
H     6.849000000     0.083000000    -1.662000000
O    11.192000000    -1.201000000    -0.857000000
H    10.415000000    -0.823000000    -0.445000000
H    11.147000000    -0.908000000    -1.768000000
O     9.840000000     2.398000000     1.812000000
H     8.888000000     2.472000000     1.745000000
H     9.982000000     1.636000000     2.374000000
O     9.552000000     2.146000000    -1.806000000
H     9.170000000     2.135000000    -0.928000000
H     9.476000000     1.241000000    -2.111000000
