215
-1442.55714
C    -1.137000000    -0.876000000     5.497000000
H    -1.899000000    -1.646000000     5.412000000
C    -1.326000000     0.283000000     4.693000000
C    -0.324000000     1.263000000     4.566000000
H    -0.351000000     2.008000000     3.775000000
C    -2.379000000     0.238000000     3.626000000
O    -3.399000000    -0.757000000     3.767000000
H    -1.987000000     0.151000000     2.602000000
O    -3.057000000     1.526000000     3.627000000
C    -3.320000000     2.033000000     2.367000000
C    -2.560000000     3.074000000     1.785000000
H    -1.660000000     3.379000000     2.311000000
C    -2.741000000     3.575000000     0.529000000
O    -1.785000000     4.469000000     0.110000000
C    -3.747000000     2.998000000    -0.266000000
C    -3.913000000     3.510000000    -1.694000000
H    -4.977000000     3.375000000    -1.901000000
C    -2.954000000     2.746000000    -2.613000000
C    -3.348000000     1.581000000    -3.292000000
H    -4.342000000     1.188000000    -3.091000000
H    -3.697000000     4.577000000    -1.604000000
C    -4.518000000     1.964000000     0.275000000
H    -5.263000000     1.536000000    -0.391000000
C    -4.362000000     1.498000000     1.565000000
C    -5.236000000     0.405000000     2.067000000
H    -6.151000000     0.421000000     1.471000000
H    -5.553000000     0.542000000     3.103000000
C    -4.616000000    -0.922000000     1.751000000
C    -4.707000000    -1.551000000     0.511000000
H    -5.446000000    -1.181000000    -0.195000000
C    -3.778000000    -1.491000000     2.687000000
C    -3.199000000    -2.719000000     2.428000000
H    -2.534000000    -3.156000000     3.169000000
C    -3.248000000    -3.365000000     1.210000000
O    -2.372000000    -4.360000000     0.988000000
C    -1.152000000    -4.098000000     0.168000000
C     0.178000000    -4.475000000     0.869000000
C     1.326000000    -4.658000000     0.115000000
H     1.316000000    -4.498000000    -0.960000000
C     0.295000000    -4.685000000     2.224000000
H    -0.635000000    -4.648000000     2.785000000
O    -1.290000000    -4.603000000    -1.169000000
H    -1.013000000    -3.011000000     0.066000000
C    -3.995000000    -2.753000000     0.198000000
C    -4.093000000    -3.555000000    -1.080000000
H    -5.055000000    -3.448000000    -1.585000000
H    -3.954000000    -4.604000000    -0.810000000
C    -2.998000000    -3.135000000    -2.085000000
C    -3.301000000    -2.092000000    -2.967000000
H    -4.254000000    -1.574000000    -2.911000000
C    -1.770000000    -3.784000000    -2.138000000
C    -0.840000000    -3.265000000    -3.026000000
H     0.058000000    -3.877000000    -3.012000000
C    -1.079000000    -2.152000000    -3.866000000
O     0.002000000    -1.645000000    -4.563000000
C     0.417000000    -0.356000000    -4.242000000
C     1.903000000    -0.321000000    -4.407000000
C     2.688000000    -1.421000000    -4.150000000
H     2.288000000    -2.338000000    -3.725000000
C     2.553000000     0.879000000    -4.698000000
H     1.884000000     1.686000000    -4.983000000
O    -0.256000000     0.656000000    -5.011000000
H     0.215000000    -0.229000000    -3.168000000
C    -2.359000000    -1.653000000    -3.889000000
C    -2.831000000    -0.476000000    -4.766000000
H    -3.916000000    -0.436000000    -4.882000000
H    -2.421000000    -0.576000000    -5.773000000
C    -2.509000000     0.854000000    -4.128000000
C    -1.236000000     1.340000000    -4.298000000
C    -0.757000000     2.472000000    -3.694000000
H     0.242000000     2.869000000    -3.856000000
C    -1.651000000     3.120000000    -2.828000000
O    -1.160000000     4.192000000    -2.135000000
C    -0.769000000     4.034000000    -0.782000000
H    -0.656000000     2.953000000    -0.613000000
C     0.582000000     4.574000000    -0.453000000
C     1.009000000     4.713000000     0.832000000
H     0.330000000     4.412000000     1.626000000
C     1.409000000     4.941000000    -1.546000000
H     1.110000000     4.831000000    -2.585000000
C     2.566000000     5.565000000    -1.323000000
O     3.359000000     5.898000000    -2.352000000
C     3.070000000     5.661000000    -0.020000000
H     4.050000000     6.097000000     0.157000000
C     2.250000000     5.292000000     1.062000000
O     2.782000000     5.339000000     2.292000000
C     2.098000000     5.024000000     3.412000000
C     2.263000000     3.812000000     4.031000000
H     3.000000000     3.096000000     3.676000000
C     1.201000000     5.948000000     3.918000000
H     0.984000000     6.868000000     3.381000000
C     0.451000000     5.646000000     5.078000000
H    -0.187000000     6.402000000     5.529000000
C     0.601000000     4.416000000     5.714000000
H     0.112000000     4.200000000     6.660000000
C     1.498000000     3.541000000     5.143000000
O     1.665000000     2.260000000     5.634000000
C     0.765000000     1.218000000     5.481000000
C     0.995000000     0.101000000     6.280000000
H     1.929000000     0.126000000     6.835000000
C     0.029000000    -0.965000000     6.350000000
O     0.197000000    -2.112000000     7.101000000
C     0.006000000    -3.347000000     6.621000000
C     0.970000000    -3.880000000     5.757000000
H     1.903000000    -3.358000000     5.558000000
C    -1.196000000    -4.069000000     6.988000000
H    -1.831000000    -3.633000000     7.754000000
C    -1.427000000    -5.295000000     6.333000000
H    -2.297000000    -5.882000000     6.619000000
C    -0.494000000    -5.767000000     5.405000000
H    -0.697000000    -6.740000000     4.964000000
C     0.662000000    -5.067000000     5.112000000
O     1.561000000    -5.571000000     4.155000000
C     1.513000000    -5.103000000     2.837000000
C     2.677000000    -5.193000000     2.042000000
H     3.530000000    -5.576000000     2.597000000
C     2.590000000    -4.962000000     0.715000000
O     3.782000000    -5.047000000    -0.018000000
C     3.966000000    -4.914000000    -1.393000000
C     4.387000000    -3.709000000    -1.977000000
H     4.546000000    -2.803000000    -1.397000000
C     3.741000000    -6.040000000    -2.192000000
H     3.449000000    -6.941000000    -1.658000000
C     3.870000000    -5.935000000    -3.595000000
H     3.619000000    -6.781000000    -4.230000000
C     4.264000000    -4.711000000    -4.117000000
H     4.296000000    -4.614000000    -5.199000000
C     4.508000000    -3.636000000    -3.317000000
O     4.953000000    -2.394000000    -3.851000000
C     4.090000000    -1.321000000    -4.280000000
C     4.686000000    -0.145000000    -4.528000000
H     5.771000000    -0.175000000    -4.583000000
C     3.920000000     1.014000000    -4.724000000
O     4.506000000     2.241000000    -4.984000000
C     3.923000000     3.452000000    -4.933000000
C     3.866000000     4.234000000    -6.094000000
H     3.986000000     3.740000000    -7.055000000
C     3.639000000     5.565000000    -5.974000000
H     3.560000000     6.108000000    -6.913000000
C     3.509000000     6.171000000    -4.726000000
H     3.351000000     7.238000000    -4.593000000
C     3.403000000     5.347000000    -3.612000000
C     3.597000000     4.071000000    -3.685000000
H     3.683000000     3.456000000    -2.793000000
C     1.991000000     0.944000000     0.224000000
H     2.621000000     1.647000000    -0.313000000
C     0.646000000     0.711000000    -0.126000000
H     0.230000000     1.123000000    -1.041000000
C    -0.218000000    -0.092000000     0.639000000
H    -1.238000000    -0.300000000     0.336000000
C     0.292000000    -0.808000000     1.729000000
H    -0.397000000    -1.472000000     2.245000000
C     1.621000000    -0.560000000     2.106000000
H     2.044000000    -1.081000000     2.961000000
C     2.506000000     0.332000000     1.392000000
C     3.795000000     0.655000000     2.037000000
O     4.204000000     0.145000000     3.072000000
O     4.490000000     1.494000000     1.532000000
O     4.397000000    -3.044000000     6.696000000
H     4.937000000    -3.560000000     6.097000000
H     4.350000000    -2.178000000     6.291000000
O     4.495000000     3.750000000     6.577000000
H     4.576000000     3.139000000     5.845000000
H     4.695000000     4.606000000     6.198000000
O     6.145000000    -4.838000000     3.233000000
H     5.969000000    -3.918000000     3.036000000
H     6.955000000    -4.823000000     3.743000000
O     8.840000000     0.739000000     5.593000000
H     9.744000000     0.527000000     5.827000000
H     8.658000000     1.555000000     6.059000000
O     4.168000000    -0.405000000     5.852000000
H     4.662000000     0.349000000     6.173000000
H     4.084000000    -0.254000000     4.911000000
O     7.393000000    -0.562000000    -2.793000000
H     8.039000000     0.071000000    -3.107000000
H     7.067000000    -0.187000000    -1.975000000
O     9.723000000     2.427000000     1.458000000
H     9.158000000     2.736000000     0.749000000
H    10.018000000     1.564000000     1.169000000
O     6.058000000     3.340000000     0.788000000
H     6.418000000     3.712000000     1.594000000
H     5.511000000     2.613000000     1.084000000
O     5.367000000     2.151000000     4.433000000
H     5.096000000     1.567000000     3.725000000
H     5.967000000     1.625000000     4.962000000
O     9.403000000    -0.221000000     0.239000000
H     9.668000000    -0.627000000    -0.586000000
H     8.476000000    -0.018000000     0.120000000
O     2.903000000     2.360000000     8.437000000
H     2.337000000     2.131000000     7.699000000
H     3.578000000     2.921000000     8.057000000
O     6.864000000    -2.710000000     0.589000000
H     6.183000000    -3.037000000     1.176000000
H     7.650000000    -2.667000000     1.134000000
O     5.972000000     6.632000000     2.606000000
H     5.049000000     6.404000000     2.720000000
H     6.449000000     5.855000000     2.898000000
O     7.632000000    -1.626000000     4.610000000
H     8.100000000    -0.868000000     4.960000000
H     8.245000000    -2.021000000     3.990000000
O     5.585000000    -2.159000000     2.910000000
H     6.160000000    -2.048000000     3.667000000
H     5.014000000    -1.391000000     2.929000000
O    10.663000000     0.795000000     3.275000000
H    10.840000000     1.194000000     4.127000000
H     9.914000000     1.283000000     2.933000000
O     6.620000000     0.290000000    -0.174000000
H     6.238000000    -0.569000000     0.005000000
H     6.090000000     0.900000000     0.339000000
O     6.841000000     4.210000000     3.435000000
H     6.187000000     3.525000000     3.575000000
H     7.329000000     4.246000000     4.258000000
O     6.372000000     2.996000000    -1.733000000
H     6.042000000     3.395000000    -0.928000000
H     6.095000000     2.082000000    -1.678000000
