215
-1477.94597
C    -0.564000000    -0.115000000     5.440000000
H    -1.031000000    -1.085000000     5.291000000
C    -1.125000000     1.067000000     4.919000000
C    -0.480000000     2.349000000     5.104000000
H    -0.797000000     3.216000000     4.531000000
C    -2.183000000     0.957000000     3.847000000
O    -3.083000000    -0.115000000     4.107000000
H    -1.521000000     0.760000000     2.991000000
O    -2.752000000     2.211000000     3.552000000
C    -2.985000000     2.468000000     2.194000000
C    -2.125000000     3.298000000     1.553000000
H    -1.258000000     3.765000000     2.012000000
C    -2.399000000     3.604000000     0.193000000
O    -1.445000000     4.319000000    -0.525000000
C    -3.481000000     3.022000000    -0.537000000
C    -3.761000000     3.347000000    -2.069000000
H    -4.805000000     3.208000000    -2.356000000
C    -2.885000000     2.499000000    -2.975000000
C    -3.537000000     1.335000000    -3.452000000
H    -4.564000000     1.126000000    -3.164000000
H    -3.566000000     4.399000000    -2.290000000
C    -4.375000000     2.231000000     0.171000000
H    -5.229000000     1.759000000    -0.308000000
C    -4.180000000     2.021000000     1.547000000
C    -5.021000000     1.047000000     2.244000000
H    -6.040000000     1.050000000     1.850000000
H    -5.133000000     1.313000000     3.298000000
C    -4.436000000    -0.290000000     2.097000000
C    -4.615000000    -0.969000000     0.861000000
H    -5.389000000    -0.625000000     0.179000000
C    -3.493000000    -0.796000000     3.083000000
C    -2.937000000    -2.096000000     2.911000000
H    -2.244000000    -2.487000000     3.652000000
C    -3.234000000    -2.706000000     1.751000000
O    -2.511000000    -3.838000000     1.479000000
C    -1.458000000    -3.682000000     0.554000000
C    -0.176000000    -4.123000000     1.123000000
C     0.988000000    -3.938000000     0.386000000
H     0.861000000    -3.548000000    -0.620000000
C    -0.060000000    -4.478000000     2.491000000
H    -0.913000000    -4.600000000     3.154000000
O    -1.802000000    -4.339000000    -0.688000000
H    -1.352000000    -2.602000000     0.375000000
C    -4.138000000    -2.264000000     0.809000000
C    -4.435000000    -3.159000000    -0.436000000
H    -5.447000000    -2.891000000    -0.746000000
H    -4.369000000    -4.228000000    -0.220000000
C    -3.407000000    -2.849000000    -1.553000000
C    -3.809000000    -2.056000000    -2.597000000
H    -4.803000000    -1.621000000    -2.646000000
C    -2.236000000    -3.564000000    -1.656000000
C    -1.401000000    -3.474000000    -2.802000000
H    -0.520000000    -4.111000000    -2.800000000
C    -1.763000000    -2.595000000    -3.823000000
O    -0.811000000    -2.327000000    -4.805000000
C    -0.048000000    -1.094000000    -4.644000000
C     1.440000000    -1.340000000    -4.938000000
C     2.052000000    -2.617000000    -4.806000000
H     1.481000000    -3.519000000    -4.604000000
C     2.272000000    -0.281000000    -5.276000000
H     1.913000000     0.729000000    -5.458000000
O    -0.634000000    -0.018000000    -5.388000000
H    -0.139000000    -0.851000000    -3.575000000
C    -2.961000000    -1.814000000    -3.742000000
C    -3.362000000    -0.812000000    -4.780000000
H    -4.443000000    -0.734000000    -4.908000000
H    -3.073000000    -1.126000000    -5.785000000
C    -2.775000000     0.535000000    -4.347000000
C    -1.473000000     0.821000000    -4.709000000
C    -0.817000000     1.888000000    -4.150000000
H     0.224000000     2.090000000    -4.393000000
C    -1.524000000     2.730000000    -3.340000000
O    -0.823000000     3.745000000    -2.713000000
C    -0.455000000     3.545000000    -1.337000000
H    -0.466000000     2.463000000    -1.141000000
C     0.916000000     4.131000000    -0.975000000
C     1.202000000     4.753000000     0.266000000
H     0.346000000     5.016000000     0.882000000
C     1.942000000     3.879000000    -1.884000000
H     1.861000000     3.331000000    -2.819000000
C     3.238000000     4.228000000    -1.513000000
O     4.345000000     3.944000000    -2.339000000
C     3.488000000     4.829000000    -0.326000000
H     4.513000000     5.047000000    -0.036000000
C     2.496000000     5.082000000     0.613000000
O     2.747000000     5.569000000     1.884000000
C     1.990000000     5.648000000     3.028000000
C     2.058000000     4.649000000     4.018000000
H     2.605000000     3.733000000     3.813000000
C     1.180000000     6.715000000     3.333000000
H     1.050000000     7.531000000     2.627000000
C     0.449000000     6.808000000     4.501000000
H    -0.166000000     7.685000000     4.687000000
C     0.391000000     5.759000000     5.366000000
H    -0.285000000     5.693000000     6.215000000
C     1.257000000     4.708000000     5.165000000
O     1.298000000     3.669000000     6.037000000
C     0.707000000     2.442000000     5.840000000
C     1.240000000     1.317000000     6.379000000
H     2.212000000     1.390000000     6.860000000
C     0.628000000     0.077000000     6.214000000
O     1.310000000    -0.958000000     6.761000000
C     0.912000000    -2.261000000     6.641000000
C     1.415000000    -3.017000000     5.575000000
H     2.282000000    -2.668000000     5.020000000
C    -0.119000000    -2.739000000     7.418000000
H    -0.500000000    -2.073000000     8.188000000
C    -0.585000000    -3.963000000     7.266000000
H    -1.367000000    -4.316000000     7.932000000
C    -0.114000000    -4.778000000     6.266000000
H    -0.428000000    -5.819000000     6.232000000
C     0.880000000    -4.310000000     5.411000000
O     1.324000000    -5.132000000     4.329000000
C     1.211000000    -4.743000000     3.013000000
C     2.361000000    -4.489000000     2.243000000
H     3.316000000    -4.804000000     2.654000000
C     2.267000000    -4.186000000     0.876000000
O     3.402000000    -4.065000000     0.156000000
C     3.596000000    -4.738000000    -1.057000000
C     3.718000000    -3.931000000    -2.206000000
H     3.511000000    -2.867000000    -2.133000000
C     3.575000000    -6.163000000    -1.068000000
H     3.413000000    -6.802000000    -0.203000000
C     3.723000000    -6.775000000    -2.330000000
H     3.525000000    -7.839000000    -2.429000000
C     3.942000000    -6.028000000    -3.511000000
H     3.894000000    -6.499000000    -4.489000000
C     3.973000000    -4.635000000    -3.407000000
O     4.029000000    -3.999000000    -4.639000000
C     3.437000000    -2.793000000    -4.898000000
C     4.242000000    -1.756000000    -5.332000000
H     5.308000000    -1.906000000    -5.480000000
C     3.614000000    -0.486000000    -5.502000000
O     4.359000000     0.596000000    -5.837000000
C     4.268000000     1.887000000    -5.398000000
C     4.062000000     2.874000000    -6.344000000
H     3.951000000     2.684000000    -7.409000000
C     3.827000000     4.225000000    -5.981000000
H     3.642000000     4.962000000    -6.759000000
C     3.955000000     4.599000000    -4.625000000
H     3.871000000     5.648000000    -4.354000000
C     4.253000000     3.599000000    -3.689000000
C     4.367000000     2.246000000    -4.047000000
H     4.544000000     1.463000000    -3.314000000
C     1.266000000    -0.174000000    -1.127000000
H     1.719000000     0.232000000    -2.028000000
C    -0.092000000    -0.220000000    -0.877000000
H    -0.823000000     0.053000000    -1.634000000
C    -0.541000000    -0.449000000     0.414000000
H    -1.620000000    -0.442000000     0.566000000
C     0.263000000    -0.793000000     1.419000000
H    -0.125000000    -0.989000000     2.415000000
C     1.631000000    -0.813000000     1.217000000
H     2.246000000    -1.102000000     2.065000000
C     2.125000000    -0.555000000    -0.049000000
C     3.610000000    -0.599000000    -0.213000000
O     4.310000000    -0.884000000     0.774000000
O     4.133000000    -0.410000000    -1.299000000
O     7.229000000    -4.564000000     0.140000000
H     8.144000000    -4.646000000    -0.128000000
H     6.735000000    -4.596000000    -0.679000000
O     4.295000000    -2.181000000     3.288000000
H     4.991000000    -2.823000000     3.144000000
H     4.032000000    -1.912000000     2.408000000
O     8.719000000    -0.408000000    -0.406000000
H     7.888000000    -0.880000000    -0.363000000
H     9.350000000    -0.995000000     0.010000000
O     0.445000000    -6.570000000    -1.626000000
H     1.048000000    -6.071000000    -2.176000000
H     0.994000000    -6.918000000    -0.923000000
O     5.001000000    -0.554000000     5.417000000
H     4.640000000    -1.008000000     4.656000000
H     5.466000000     0.198000000     5.050000000
O     8.012000000    -2.358000000    -4.754000000
H     8.014000000    -3.294000000    -4.550000000
H     7.362000000    -1.985000000    -4.159000000
O     6.365000000    -2.943000000     5.214000000
H     6.646000000    -3.104000000     4.314000000
H     5.868000000    -2.127000000     5.168000000
O     5.280000000     2.080000000    -0.561000000
H     4.867000000     2.674000000    -1.188000000
H     4.978000000     1.209000000    -0.821000000
O     6.536000000     1.357000000     4.134000000
H     6.864000000     2.195000000     4.461000000
H     5.913000000     1.596000000     3.447000000
O     4.464000000     1.673000000     2.104000000
H     4.328000000     0.728000000     2.035000000
H     4.815000000     1.927000000     1.250000000
O     7.479000000    -1.080000000     3.048000000
H     6.992000000    -1.194000000     2.232000000
H     7.477000000    -0.134000000     3.198000000
O     6.145000000    -4.496000000     2.598000000
H     5.640000000    -5.310000000     2.602000000
H     6.664000000    -4.541000000     1.795000000
O     6.475000000     4.446000000     2.267000000
H     5.853000000     4.270000000     1.561000000
H     6.938000000     5.236000000     1.987000000
O     7.154000000    -4.782000000    -2.694000000
H     8.043000000    -5.126000000    -2.609000000
H     6.806000000    -5.209000000    -3.476000000
O     8.265000000     2.343000000    -0.663000000
H     7.328000000     2.327000000    -0.858000000
H     8.499000000     1.424000000    -0.537000000
O     6.623000000    -1.881000000     0.250000000
H     5.726000000    -1.573000000     0.379000000
H     6.591000000    -2.812000000     0.470000000
O     6.235000000    -1.550000000    -2.714000000
H     6.426000000    -2.183000000    -2.022000000
H     5.401000000    -1.157000000    -2.456000000
O     7.333000000     0.802000000    -3.408000000
H     7.710000000     0.597000000    -4.264000000
H     7.152000000    -0.052000000    -3.016000000
O     7.824000000     3.617000000    -3.612000000
H     8.712000000     3.860000000    -3.348000000
H     7.732000000     2.706000000    -3.333000000
