215
-1469.73629
C    -1.414000000    -0.403000000     5.678000000
H    -2.024000000    -1.303000000     5.683000000
C    -1.706000000     0.753000000     4.871000000
C    -1.095000000     1.928000000     5.168000000
H    -1.369000000     2.813000000     4.600000000
C    -2.718000000     0.524000000     3.737000000
O    -3.390000000    -0.703000000     3.824000000
H    -2.138000000     0.598000000     2.805000000
O    -3.513000000     1.680000000     3.517000000
C    -3.652000000     2.122000000     2.222000000
C    -2.784000000     3.066000000     1.703000000
H    -2.046000000     3.524000000     2.356000000
C    -2.788000000     3.487000000     0.410000000
O    -1.756000000     4.309000000     0.039000000
C    -3.722000000     2.969000000    -0.433000000
C    -3.708000000     3.514000000    -1.880000000
H    -4.756000000     3.458000000    -2.181000000
C    -2.813000000     2.758000000    -2.804000000
C    -3.307000000     1.631000000    -3.490000000
H    -4.258000000     1.229000000    -3.150000000
H    -3.445000000     4.573000000    -1.843000000
C    -4.648000000     2.013000000     0.005000000
H    -5.316000000     1.453000000    -0.645000000
C    -4.613000000     1.610000000     1.377000000
C    -5.462000000     0.394000000     1.835000000
H    -6.403000000     0.362000000     1.281000000
H    -5.668000000     0.457000000     2.905000000
C    -4.707000000    -0.948000000     1.703000000
C    -4.935000000    -1.738000000     0.566000000
H    -5.719000000    -1.485000000    -0.144000000
C    -3.726000000    -1.346000000     2.656000000
C    -3.090000000    -2.566000000     2.489000000
H    -2.355000000    -2.842000000     3.240000000
C    -3.212000000    -3.276000000     1.312000000
O    -2.353000000    -4.277000000     1.120000000
C    -1.200000000    -4.116000000     0.225000000
C     0.150000000    -4.517000000     0.808000000
C     1.253000000    -4.899000000    -0.040000000
H     1.024000000    -5.120000000    -1.080000000
C     0.453000000    -4.295000000     2.193000000
H    -0.387000000    -4.042000000     2.835000000
O    -1.513000000    -4.586000000    -1.094000000
H    -0.915000000    -3.054000000     0.185000000
C    -4.136000000    -2.873000000     0.370000000
C    -4.174000000    -3.574000000    -1.024000000
H    -5.174000000    -3.499000000    -1.456000000
H    -4.086000000    -4.654000000    -0.891000000
C    -3.151000000    -3.128000000    -2.037000000
C    -3.408000000    -2.113000000    -2.930000000
H    -4.430000000    -1.774000000    -3.083000000
C    -1.870000000    -3.719000000    -2.045000000
C    -0.911000000    -3.291000000    -2.946000000
H    -0.002000000    -3.882000000    -3.023000000
C    -1.206000000    -2.284000000    -3.841000000
O    -0.217000000    -1.804000000    -4.693000000
C     0.468000000    -0.551000000    -4.477000000
C     1.954000000    -0.642000000    -4.778000000
C     2.769000000    -1.671000000    -4.189000000
H     2.328000000    -2.475000000    -3.607000000
C     2.670000000     0.465000000    -5.282000000
H     2.073000000     1.294000000    -5.655000000
O    -0.281000000     0.555000000    -5.147000000
H     0.355000000    -0.457000000    -3.387000000
C    -2.496000000    -1.644000000    -3.859000000
C    -2.779000000    -0.462000000    -4.826000000
H    -3.848000000    -0.440000000    -5.050000000
H    -2.408000000    -0.464000000    -5.853000000
C    -2.405000000     0.829000000    -4.158000000
C    -1.101000000     1.304000000    -4.366000000
C    -0.674000000     2.501000000    -3.868000000
H     0.364000000     2.775000000    -4.037000000
C    -1.494000000     3.163000000    -2.989000000
O    -0.916000000     4.151000000    -2.294000000
C    -0.687000000     3.808000000    -0.850000000
H    -0.832000000     2.721000000    -0.759000000
C     0.705000000     4.304000000    -0.440000000
C     0.994000000     4.653000000     0.918000000
H     0.086000000     4.596000000     1.512000000
C     1.725000000     4.116000000    -1.336000000
H     1.508000000     3.760000000    -2.340000000
C     3.058000000     4.409000000    -0.997000000
O     4.119000000     4.361000000    -1.859000000
C     3.357000000     4.802000000     0.317000000
H     4.393000000     4.867000000     0.642000000
C     2.317000000     4.934000000     1.284000000
O     2.567000000     5.263000000     2.625000000
C     1.673000000     5.282000000     3.652000000
C     1.501000000     4.124000000     4.453000000
H     1.957000000     3.162000000     4.234000000
C     1.094000000     6.530000000     3.994000000
H     1.202000000     7.448000000     3.422000000
C     0.257000000     6.555000000     5.090000000
H    -0.117000000     7.531000000     5.388000000
C     0.166000000     5.438000000     5.929000000
H    -0.414000000     5.569000000     6.839000000
C     0.816000000     4.228000000     5.623000000
O     0.663000000     3.159000000     6.444000000
C    -0.007000000     1.989000000     6.112000000
C     0.373000000     0.824000000     6.775000000
H     1.086000000     0.920000000     7.590000000
C    -0.317000000    -0.387000000     6.503000000
O    -0.069000000    -1.522000000     7.251000000
C     0.006000000    -2.761000000     6.675000000
C     1.074000000    -3.118000000     5.800000000
H     1.789000000    -2.328000000     5.582000000
C    -1.039000000    -3.634000000     6.921000000
H    -1.782000000    -3.319000000     7.649000000
C    -1.060000000    -4.897000000     6.266000000
H    -1.929000000    -5.536000000     6.403000000
C    -0.032000000    -5.162000000     5.376000000
H     0.005000000    -6.121000000     4.866000000
C     0.978000000    -4.229000000     5.023000000
O     1.959000000    -4.553000000     4.053000000
C     1.759000000    -4.544000000     2.686000000
C     2.789000000    -4.924000000     1.800000000
H     3.779000000    -5.133000000     2.199000000
C     2.515000000    -5.076000000     0.450000000
O     3.688000000    -5.407000000    -0.324000000
C     3.715000000    -5.242000000    -1.699000000
C     4.319000000    -4.074000000    -2.131000000
H     4.621000000    -3.373000000    -1.358000000
C     3.283000000    -6.242000000    -2.565000000
H     2.856000000    -7.164000000    -2.179000000
C     3.667000000    -6.195000000    -3.937000000
H     3.560000000    -7.026000000    -4.630000000
C     4.173000000    -4.949000000    -4.415000000
H     4.255000000    -4.837000000    -5.493000000
C     4.421000000    -3.947000000    -3.541000000
O     4.924000000    -2.741000000    -4.011000000
C     4.149000000    -1.679000000    -4.394000000
C     4.787000000    -0.616000000    -4.997000000
H     5.865000000    -0.601000000    -5.134000000
C     4.067000000     0.478000000    -5.405000000
O     4.659000000     1.598000000    -5.908000000
C     4.572000000     2.772000000    -5.147000000
C     4.622000000     3.939000000    -5.891000000
H     4.795000000     3.917000000    -6.963000000
C     4.644000000     5.224000000    -5.310000000
H     4.937000000     6.080000000    -5.911000000
C     4.369000000     5.316000000    -3.932000000
H     4.495000000     6.281000000    -3.449000000
C     4.205000000     4.157000000    -3.185000000
C     4.230000000     2.902000000    -3.749000000
H     4.018000000     2.001000000    -3.180000000
C     1.095000000     0.110000000    -0.824000000
H     1.588000000     0.453000000    -1.729000000
C    -0.285000000    -0.009000000    -0.824000000
H    -0.907000000     0.161000000    -1.698000000
C    -0.977000000    -0.500000000     0.273000000
H    -2.066000000    -0.469000000     0.316000000
C    -0.303000000    -0.718000000     1.445000000
H    -0.866000000    -1.031000000     2.320000000
C     1.087000000    -0.605000000     1.455000000
H     1.517000000    -0.939000000     2.396000000
C     1.799000000    -0.165000000     0.350000000
C     3.326000000     0.003000000     0.487000000
O     3.851000000    -0.234000000     1.511000000
O     4.036000000     0.109000000    -0.572000000
O     4.253000000    -2.370000000     4.781000000
H     4.646000000    -2.629000000     3.947000000
H     3.645000000    -1.668000000     4.551000000
O     5.428000000    -2.215000000     2.367000000
H     5.482000000    -2.855000000     1.657000000
H     5.036000000    -1.441000000     1.962000000
O     5.799000000     3.185000000     5.161000000
H     6.039000000     3.772000000     4.444000000
H     5.589000000     3.769000000     5.889000000
O     3.103000000     0.151000000     3.919000000
H     2.308000000     0.684000000     3.907000000
H     3.453000000     0.222000000     3.031000000
O     7.898000000    -2.328000000    -2.589000000
H     7.692000000    -3.263000000    -2.577000000
H     7.045000000    -1.895000000    -2.621000000
O     7.762000000    -1.301000000     3.479000000
H     7.376000000    -0.449000000     3.684000000
H     7.039000000    -1.808000000     3.109000000
O     5.685000000     2.162000000    -0.964000000
H     5.074000000     2.814000000    -1.307000000
H     5.133000000     1.417000000    -0.726000000
O     7.103000000    -5.285000000     4.189000000
H     7.426000000    -4.584000000     4.755000000
H     6.350000000    -4.902000000     3.738000000
O     5.862000000     1.390000000     1.921000000
H     5.155000000     0.831000000     1.598000000
H     5.889000000     1.220000000     2.863000000
O     7.720000000    -0.468000000     0.733000000
H     7.231000000     0.287000000     1.060000000
H     7.352000000    -1.215000000     1.205000000
O     6.405000000    -4.037000000     0.700000000
H     5.937000000    -4.560000000     0.049000000
H     7.262000000    -4.456000000     0.773000000
O     6.677000000     5.122000000     3.374000000
H     7.235000000     5.816000000     3.725000000
H     6.443000000     5.424000000     2.496000000
O     4.251000000    -4.348000000     6.487000000
H     4.024000000    -5.080000000     5.913000000
H     4.188000000    -3.575000000     5.926000000
O     9.015000000     1.846000000    -1.000000000
H     8.438000000     1.866000000    -1.764000000
H     8.769000000     1.045000000    -0.535000000
O     5.975000000     0.555000000     4.429000000
H     6.128000000     1.414000000     4.823000000
H     5.105000000     0.302000000     4.737000000
O     6.815000000    -2.769000000     5.845000000
H     7.258000000    -2.187000000     5.227000000
H     5.900000000    -2.490000000     5.822000000
O     6.070000000    -0.725000000    -1.753000000
H     6.652000000    -0.731000000    -0.993000000
H     5.197000000    -0.589000000    -1.385000000
O     6.620000000     4.038000000     0.727000000
H     6.904000000     3.514000000     1.476000000
H     6.344000000     3.394000000     0.075000000
O     7.302000000     1.450000000    -3.137000000
H     7.238000000     0.496000000    -3.167000000
H     6.649000000     1.714000000    -2.489000000
