215
-1454.49124
C    -0.646000000    -1.209000000     5.327000000
H    -0.933000000    -2.165000000     4.897000000
C    -1.215000000    -0.046000000     4.834000000
C    -0.798000000     1.242000000     5.295000000
H    -1.134000000     2.172000000     4.844000000
C    -2.258000000    -0.130000000     3.748000000
O    -3.023000000    -1.412000000     3.924000000
H    -1.752000000    -0.153000000     2.771000000
O    -3.296000000     0.942000000     3.863000000
C    -3.661000000     1.545000000     2.694000000
C    -3.043000000     2.731000000     2.209000000
H    -2.367000000     3.375000000     2.766000000
C    -3.310000000     3.228000000     0.911000000
O    -2.601000000     4.365000000     0.483000000
C    -4.216000000     2.582000000     0.097000000
C    -4.561000000     3.104000000    -1.334000000
H    -5.610000000     3.024000000    -1.628000000
C    -3.623000000     2.583000000    -2.367000000
C    -3.851000000     1.450000000    -3.155000000
H    -4.667000000     0.778000000    -2.898000000
H    -4.519000000     4.193000000    -1.264000000
C    -4.785000000     1.373000000     0.453000000
H    -5.443000000     0.803000000    -0.198000000
C    -4.581000000     0.891000000     1.767000000
C    -5.265000000    -0.430000000     2.123000000
H    -6.194000000    -0.712000000     1.623000000
H    -5.480000000    -0.386000000     3.193000000
C    -4.242000000    -1.581000000     1.826000000
C    -4.277000000    -2.215000000     0.554000000
H    -4.948000000    -1.787000000    -0.186000000
C    -3.272000000    -2.032000000     2.750000000
C    -2.428000000    -3.085000000     2.453000000
H    -1.701000000    -3.534000000     3.124000000
C    -2.478000000    -3.637000000     1.129000000
O    -1.510000000    -4.546000000     0.761000000
C    -0.504000000    -3.981000000    -0.135000000
C     0.888000000    -4.312000000     0.350000000
C     1.914000000    -4.326000000    -0.588000000
H     1.659000000    -4.371000000    -1.644000000
C     1.140000000    -4.367000000     1.703000000
H     0.346000000    -4.216000000     2.430000000
O    -0.823000000    -4.418000000    -1.468000000
H    -0.614000000    -2.895000000    -0.268000000
C    -3.445000000    -3.252000000     0.213000000
C    -3.625000000    -3.945000000    -1.116000000
H    -4.685000000    -3.815000000    -1.341000000
H    -3.243000000    -4.967000000    -1.144000000
C    -2.846000000    -3.222000000    -2.135000000
C    -3.418000000    -2.172000000    -2.929000000
H    -4.434000000    -1.835000000    -2.738000000
C    -1.543000000    -3.654000000    -2.336000000
C    -0.857000000    -3.038000000    -3.324000000
H     0.203000000    -3.244000000    -3.455000000
C    -1.352000000    -1.991000000    -4.114000000
O    -0.467000000    -1.267000000    -4.895000000
C     0.022000000    -0.070000000    -4.320000000
C     1.587000000    -0.013000000    -4.521000000
C     2.308000000    -1.070000000    -4.954000000
H     1.825000000    -1.992000000    -5.268000000
C     2.245000000     1.140000000    -4.147000000
H     1.772000000     2.020000000    -3.717000000
O    -0.622000000     1.094000000    -4.912000000
H    -0.304000000    -0.094000000    -3.269000000
C    -2.682000000    -1.548000000    -3.914000000
C    -3.182000000    -0.386000000    -4.721000000
H    -4.255000000    -0.512000000    -4.880000000
H    -2.708000000    -0.473000000    -5.701000000
C    -2.892000000     0.913000000    -4.001000000
C    -1.698000000     1.617000000    -4.223000000
C    -1.548000000     2.804000000    -3.594000000
H    -0.619000000     3.321000000    -3.822000000
C    -2.445000000     3.305000000    -2.621000000
O    -2.125000000     4.350000000    -1.926000000
C    -1.620000000     4.076000000    -0.577000000
H    -1.476000000     2.986000000    -0.562000000
C    -0.278000000     4.688000000    -0.156000000
C     0.261000000     4.566000000     1.090000000
H    -0.256000000     3.890000000     1.766000000
C     0.470000000     5.247000000    -1.174000000
H     0.037000000     5.491000000    -2.141000000
C     1.771000000     5.671000000    -0.918000000
O     2.460000000     6.266000000    -1.888000000
C     2.318000000     5.553000000     0.356000000
H     3.330000000     5.795000000     0.671000000
C     1.555000000     5.008000000     1.399000000
O     2.234000000     4.639000000     2.592000000
C     1.565000000     4.656000000     3.812000000
C     1.475000000     3.519000000     4.610000000
H     1.724000000     2.575000000     4.133000000
C     1.247000000     5.842000000     4.363000000
H     1.477000000     6.734000000     3.786000000
C     0.802000000     6.023000000     5.661000000
H     0.571000000     7.036000000     5.981000000
C     0.565000000     4.840000000     6.461000000
H     0.166000000     4.993000000     7.461000000
C     1.005000000     3.617000000     5.952000000
O     0.735000000     2.518000000     6.749000000
C     0.278000000     1.291000000     6.216000000
C     0.717000000     0.151000000     6.830000000
H     1.420000000     0.177000000     7.659000000
C     0.316000000    -1.106000000     6.364000000
O     0.848000000    -2.159000000     7.036000000
C     1.133000000    -3.388000000     6.349000000
C     1.764000000    -3.373000000     5.100000000
H     2.198000000    -2.437000000     4.760000000
C     0.680000000    -4.577000000     6.914000000
H     0.102000000    -4.627000000     7.833000000
C     1.034000000    -5.770000000     6.302000000
H     0.772000000    -6.753000000     6.685000000
C     1.733000000    -5.735000000     5.110000000
H     2.085000000    -6.674000000     4.691000000
C     2.131000000    -4.576000000     4.492000000
O     2.895000000    -4.605000000     3.402000000
C     2.451000000    -4.526000000     2.130000000
C     3.491000000    -4.392000000     1.210000000
H     4.542000000    -4.443000000     1.484000000
C     3.213000000    -4.327000000    -0.142000000
O     4.293000000    -4.105000000    -1.067000000
C     4.249000000    -4.345000000    -2.439000000
C     4.328000000    -3.233000000    -3.240000000
H     4.301000000    -2.268000000    -2.740000000
C     4.343000000    -5.630000000    -3.030000000
H     4.268000000    -6.515000000    -2.404000000
C     4.501000000    -5.738000000    -4.414000000
H     4.431000000    -6.648000000    -5.004000000
C     4.644000000    -4.591000000    -5.236000000
H     4.733000000    -4.612000000    -6.320000000
C     4.497000000    -3.365000000    -4.603000000
O     4.504000000    -2.179000000    -5.331000000
C     3.702000000    -1.000000000    -5.133000000
C     4.347000000     0.223000000    -4.990000000
H     5.424000000     0.364000000    -5.024000000
C     3.597000000     1.260000000    -4.498000000
O     4.233000000     2.413000000    -4.071000000
C     3.663000000     3.677000000    -4.163000000
C     3.140000000     4.087000000    -5.391000000
H     3.296000000     3.476000000    -6.277000000
C     2.437000000     5.300000000    -5.416000000
H     2.030000000     5.658000000    -6.358000000
C     2.189000000     6.034000000    -4.259000000
H     1.517000000     6.886000000    -4.316000000
C     2.660000000     5.571000000    -3.033000000
C     3.501000000     4.441000000    -2.994000000
H     3.985000000     4.032000000    -2.110000000
C     1.981000000     0.643000000    -0.335000000
H     2.934000000     1.042000000    -0.672000000
C     0.751000000     0.888000000    -1.000000000
H     0.829000000     1.604000000    -1.814000000
C    -0.417000000     0.198000000    -0.732000000
H    -1.331000000     0.418000000    -1.335000000
C    -0.395000000    -0.587000000     0.400000000
H    -1.338000000    -1.037000000     0.699000000
C     0.747000000    -0.768000000     1.199000000
H     0.652000000    -1.317000000     2.132000000
C     1.959000000    -0.100000000     0.805000000
C     3.228000000    -0.193000000     1.693000000
O     3.166000000    -0.916000000     2.638000000
O     4.210000000     0.520000000     1.612000000
O     3.829000000    -1.510000000     7.182000000
H     3.527000000    -0.945000000     7.894000000
H     3.614000000    -1.025000000     6.385000000
O     7.844000000    -3.879000000     2.826000000
H     8.713000000    -3.512000000     2.665000000
H     7.321000000    -3.592000000     2.078000000
O     9.182000000    -1.187000000     3.658000000
H     8.332000000    -0.792000000     3.854000000
H     9.500000000    -1.503000000     4.503000000
O     7.704000000    -3.249000000    -0.232000000
H     8.210000000    -2.506000000     0.096000000
H     6.844000000    -2.882000000    -0.435000000
O     3.681000000     0.379000000     4.943000000
H     4.023000000     1.167000000     4.519000000
H     3.632000000    -0.269000000     4.240000000
O     6.659000000     1.637000000     1.153000000
H     6.833000000     1.884000000     0.245000000
H     5.758000000     1.315000000     1.145000000
O     4.852000000     2.966000000     3.396000000
H     4.459000000     3.801000000     3.144000000
H     4.713000000     2.397000000     2.639000000
O     5.021000000     2.131000000     7.302000000
H     4.650000000     1.386000000     6.829000000
H     5.914000000     1.859000000     7.515000000
O     5.409000000    -1.500000000    -0.309000000
H     4.777000000    -2.218000000    -0.279000000
H     5.124000000    -0.901000000     0.381000000
O     6.232000000     4.353000000     1.153000000
H     6.403000000     3.424000000     1.307000000
H     6.124000000     4.423000000     0.205000000
O     8.660000000    -0.547000000     0.820000000
H     8.688000000    -0.423000000     1.768000000
H     8.089000000     0.153000000     0.503000000
O     6.923000000     0.201000000     3.482000000
H     6.366000000     0.601000000     4.149000000
H     6.951000000     0.845000000     2.775000000
O     6.382000000    -3.204000000     5.252000000
H     6.315000000    -3.393000000     4.316000000
H     5.837000000    -3.870000000     5.670000000
O     5.493000000    -2.265000000     2.699000000
H     5.939000000    -1.525000000     3.111000000
H     4.574000000    -2.001000000     2.664000000
O     5.520000000     6.585000000     2.526000000
H     5.627000000     5.900000000     1.866000000
H     4.699000000     7.018000000     2.292000000
O     7.445000000    -0.777000000    -2.366000000
H     6.873000000    -1.196000000    -3.009000000
H     7.378000000    -1.330000000    -1.588000000
O     6.560000000    -1.893000000     7.558000000
H     5.621000000    -1.711000000     7.556000000
H     6.704000000    -2.415000000     6.769000000
O     7.014000000     4.058000000     4.603000000
H     7.737000000     3.433000000     4.650000000
H     6.305000000     3.573000000     4.180000000
O     6.627000000     2.642000000    -1.353000000
H     6.209000000     3.442000000    -1.672000000
H     7.183000000     2.357000000    -2.079000000
