215
-1451.63808
C    -0.323000000    -1.096000000     5.170000000
H    -0.670000000    -2.064000000     4.817000000
C    -1.040000000     0.001000000     4.799000000
C    -0.579000000     1.307000000     5.156000000
H    -1.081000000     2.197000000     4.784000000
C    -2.178000000    -0.179000000     3.780000000
O    -2.827000000    -1.439000000     3.984000000
H    -1.847000000    -0.126000000     2.733000000
O    -3.114000000     0.907000000     3.838000000
C    -3.631000000     1.460000000     2.684000000
C    -3.048000000     2.624000000     2.256000000
H    -2.288000000     3.145000000     2.833000000
C    -3.483000000     3.157000000     0.998000000
O    -2.632000000     4.148000000     0.534000000
C    -4.283000000     2.346000000     0.171000000
C    -4.763000000     2.863000000    -1.226000000
H    -5.761000000     2.504000000    -1.486000000
C    -3.759000000     2.467000000    -2.387000000
C    -3.878000000     1.192000000    -2.977000000
H    -4.732000000     0.538000000    -2.816000000
H    -4.992000000     3.929000000    -1.277000000
C    -4.839000000     1.174000000     0.643000000
H    -5.566000000     0.583000000     0.092000000
C    -4.585000000     0.698000000     1.943000000
C    -5.037000000    -0.647000000     2.360000000
H    -6.031000000    -0.871000000     1.967000000
H    -5.124000000    -0.596000000     3.447000000
C    -4.044000000    -1.779000000     1.989000000
C    -4.345000000    -2.579000000     0.863000000
H    -5.300000000    -2.310000000     0.419000000
C    -3.047000000    -2.130000000     2.838000000
C    -2.206000000    -3.184000000     2.546000000
H    -1.471000000    -3.402000000     3.317000000
C    -2.321000000    -3.836000000     1.349000000
O    -1.214000000    -4.573000000     0.965000000
C    -0.279000000    -4.021000000     0.026000000
C     1.115000000    -4.333000000     0.532000000
C     2.198000000    -4.314000000    -0.365000000
H     1.990000000    -3.969000000    -1.374000000
C     1.368000000    -4.726000000     1.855000000
H     0.582000000    -4.853000000     2.596000000
O    -0.629000000    -4.603000000    -1.276000000
H    -0.324000000    -2.924000000    -0.042000000
C    -3.408000000    -3.555000000     0.492000000
C    -3.555000000    -4.143000000    -0.913000000
H    -4.619000000    -4.240000000    -1.140000000
H    -3.201000000    -5.175000000    -0.965000000
C    -2.706000000    -3.400000000    -1.954000000
C    -3.281000000    -2.461000000    -2.816000000
H    -4.354000000    -2.292000000    -2.784000000
C    -1.341000000    -3.721000000    -2.036000000
C    -0.566000000    -3.081000000    -2.963000000
H     0.492000000    -3.290000000    -3.098000000
C    -1.111000000    -2.142000000    -3.793000000
O    -0.199000000    -1.432000000    -4.555000000
C     0.189000000    -0.137000000    -4.040000000
C     1.657000000     0.096000000    -4.578000000
C     2.593000000    -0.946000000    -4.563000000
H     2.338000000    -1.961000000    -4.269000000
C     2.104000000     1.402000000    -4.937000000
H     1.465000000     2.279000000    -4.881000000
O    -0.629000000     0.898000000    -4.556000000
H     0.276000000    -0.247000000    -2.949000000
C    -2.471000000    -1.797000000    -3.684000000
C    -3.099000000    -0.675000000    -4.467000000
H    -4.172000000    -0.853000000    -4.556000000
H    -2.665000000    -0.698000000    -5.469000000
C    -2.876000000     0.689000000    -3.806000000
C    -1.679000000     1.375000000    -3.853000000
C    -1.512000000     2.596000000    -3.264000000
H    -0.567000000     3.133000000    -3.302000000
C    -2.563000000     3.160000000    -2.539000000
O    -2.301000000     4.281000000    -1.787000000
C    -1.684000000     3.924000000    -0.502000000
H    -1.459000000     2.849000000    -0.452000000
C    -0.295000000     4.451000000    -0.268000000
C     0.182000000     4.358000000     1.044000000
H    -0.446000000     3.931000000     1.822000000
C     0.527000000     4.864000000    -1.281000000
H     0.114000000     5.034000000    -2.272000000
C     1.792000000     5.479000000    -0.985000000
O     2.682000000     5.900000000    -2.031000000
C     2.262000000     5.396000000     0.316000000
H     3.263000000     5.744000000     0.560000000
C     1.485000000     4.868000000     1.341000000
O     2.095000000     4.874000000     2.564000000
C     1.424000000     4.943000000     3.718000000
C     1.606000000     3.893000000     4.595000000
H     2.377000000     3.144000000     4.433000000
C     0.337000000     5.856000000     3.846000000
H     0.147000000     6.727000000     3.225000000
C    -0.447000000     5.753000000     5.002000000
H    -1.247000000     6.478000000     5.133000000
C    -0.174000000     4.722000000     5.947000000
H    -0.788000000     4.718000000     6.844000000
C     0.774000000     3.786000000     5.759000000
O     0.887000000     2.580000000     6.551000000
C     0.522000000     1.403000000     6.015000000
C     1.177000000     0.247000000     6.360000000
H     1.972000000     0.290000000     7.100000000
C     0.711000000    -1.019000000     6.078000000
O     1.265000000    -2.109000000     6.740000000
C     1.316000000    -3.334000000     6.162000000
C     2.294000000    -3.624000000     5.259000000
H     3.167000000    -3.016000000     5.035000000
C     0.305000000    -4.190000000     6.543000000
H    -0.465000000    -3.791000000     7.197000000
C     0.331000000    -5.483000000     5.968000000
H    -0.438000000    -6.189000000     6.271000000
C     1.196000000    -5.825000000     4.914000000
H     1.167000000    -6.765000000     4.369000000
C     2.125000000    -4.820000000     4.588000000
O     3.044000000    -5.177000000     3.615000000
C     2.710000000    -5.006000000     2.268000000
C     3.815000000    -4.855000000     1.415000000
H     4.821000000    -5.077000000     1.761000000
C     3.506000000    -4.585000000     0.094000000
O     4.612000000    -4.418000000    -0.790000000
C     4.496000000    -4.232000000    -2.156000000
C     4.936000000    -3.011000000    -2.766000000
H     5.570000000    -2.339000000    -2.193000000
C     3.991000000    -5.271000000    -2.953000000
H     3.658000000    -6.184000000    -2.468000000
C     3.892000000    -5.126000000    -4.333000000
H     3.534000000    -5.919000000    -4.984000000
C     4.224000000    -3.903000000    -4.943000000
H     4.158000000    -3.767000000    -6.020000000
C     4.652000000    -2.844000000    -4.128000000
O     4.920000000    -1.594000000    -4.754000000
C     3.911000000    -0.638000000    -4.918000000
C     4.311000000     0.655000000    -5.267000000
H     5.338000000     0.903000000    -5.522000000
C     3.413000000     1.669000000    -5.256000000
O     3.833000000     2.948000000    -5.525000000
C     3.187000000     4.144000000    -5.130000000
C     3.145000000     5.160000000    -6.081000000
H     3.542000000     4.967000000    -7.074000000
C     2.711000000     6.364000000    -5.614000000
H     2.784000000     7.188000000    -6.319000000
C     2.272000000     6.562000000    -4.297000000
H     2.041000000     7.575000000    -3.980000000
C     2.568000000     5.561000000    -3.327000000
C     2.866000000     4.314000000    -3.809000000
H     3.220000000     3.574000000    -3.096000000
C     2.537000000     1.764000000    -0.348000000
H     3.056000000     2.691000000    -0.578000000
C     1.316000000     1.656000000    -0.983000000
H     0.875000000     2.484000000    -1.532000000
C     0.474000000     0.609000000    -0.645000000
H    -0.556000000     0.558000000    -0.992000000
C     0.790000000    -0.271000000     0.440000000
H     0.165000000    -1.093000000     0.782000000
C     2.019000000    -0.167000000     1.145000000
H     2.296000000    -0.840000000     1.952000000
C     2.897000000     0.853000000     0.682000000
C     4.177000000     1.080000000     1.357000000
O     4.700000000     0.177000000     2.013000000
O     4.834000000     2.115000000     1.165000000
O     4.623000000     1.336000000     7.847000000
H     4.782000000     2.235000000     8.137000000
H     4.448000000     1.414000000     6.910000000
O     8.442000000     4.563000000     2.451000000
H     7.821000000     4.065000000     1.920000000
H     8.682000000     3.967000000     3.160000000
O     9.375000000    -0.905000000     2.724000000
H     8.470000000    -0.770000000     3.003000000
H     9.556000000    -1.822000000     2.932000000
O     7.527000000    -3.060000000    -0.239000000
H     7.324000000    -3.283000000     0.670000000
H     6.857000000    -2.422000000    -0.484000000
O     4.610000000     1.460000000     4.797000000
H     4.924000000     2.324000000     4.531000000
H     4.456000000     0.997000000     3.974000000
O     9.515000000     4.557000000    -0.674000000
H     9.467000000     4.064000000    -1.494000000
H     8.613000000     4.578000000    -0.355000000
O     7.225000000     2.840000000     0.384000000
H     7.775000000     2.056000000     0.384000000
H     6.330000000     2.504000000     0.326000000
O     5.263000000     3.524000000     3.237000000
H     5.110000000     4.412000000     2.915000000
H     5.079000000     2.962000000     2.485000000
O     9.550000000     2.046000000     3.565000000
H     9.333000000     1.174000000     3.236000000
H    10.246000000     1.895000000     4.204000000
O     5.542000000    -1.091000000    -0.080000000
H     4.783000000    -1.665000000    -0.187000000
H     5.311000000    -0.525000000     0.657000000
O     7.319000000    -3.337000000     2.624000000
H     7.108000000    -4.253000000     2.802000000
H     8.266000000    -3.281000000     2.747000000
O     6.798000000     5.502000000    -0.080000000
H     6.772000000     4.546000000    -0.120000000
H     6.104000000     5.786000000    -0.674000000
O     8.344000000     0.277000000    -0.417000000
H     8.028000000    -0.281000000     0.294000000
H     7.631000000     0.278000000    -1.056000000
O     6.970000000     0.611000000     3.271000000
H     6.482000000     0.879000000     4.049000000
H     6.295000000     0.385000000     2.631000000
O     5.490000000    -2.057000000     6.041000000
H     5.320000000    -1.927000000     5.108000000
H     4.630000000    -1.972000000     6.455000000
O     4.868000000    -2.077000000     3.356000000
H     4.949000000    -1.313000000     2.784000000
H     5.471000000    -2.720000000     2.983000000
O     5.207000000     6.017000000     2.289000000
H     6.056000000     6.037000000     1.847000000
H     4.639000000     6.558000000     1.740000000
O     7.394000000     3.264000000     4.896000000
H     7.516000000     2.548000000     4.273000000
H     6.635000000     3.743000000     4.566000000
O     5.767000000     1.166000000    -1.974000000
H     5.030000000     0.635000000    -1.671000000
H     6.142000000     0.663000000    -2.697000000
