215
-1446.18372
C    -1.162000000    -0.984000000     5.662000000
H    -1.743000000    -1.884000000     5.476000000
C    -1.355000000     0.199000000     4.922000000
C    -0.546000000     1.257000000     5.234000000
H    -0.758000000     2.147000000     4.647000000
C    -2.488000000     0.266000000     3.885000000
O    -3.542000000    -0.696000000     4.183000000
H    -1.998000000     0.021000000     2.931000000
O    -3.079000000     1.569000000     3.686000000
C    -3.344000000     2.026000000     2.392000000
C    -2.399000000     2.889000000     1.902000000
H    -1.561000000     3.211000000     2.515000000
C    -2.380000000     3.211000000     0.578000000
O    -1.429000000     4.117000000     0.186000000
C    -3.518000000     2.922000000    -0.194000000
C    -3.839000000     3.538000000    -1.538000000
H    -4.898000000     3.610000000    -1.792000000
C    -3.041000000     2.932000000    -2.639000000
C    -3.577000000     1.813000000    -3.282000000
H    -4.476000000     1.387000000    -2.845000000
H    -3.644000000     4.601000000    -1.376000000
C    -4.448000000     1.986000000     0.305000000
H    -5.384000000     1.815000000    -0.220000000
C    -4.346000000     1.555000000     1.626000000
C    -5.265000000     0.449000000     2.194000000
H    -6.303000000     0.553000000     1.874000000
H    -5.536000000     0.569000000     3.245000000
C    -4.662000000    -0.907000000     2.008000000
C    -4.770000000    -1.585000000     0.824000000
H    -5.288000000    -1.091000000     0.007000000
C    -3.888000000    -1.481000000     3.074000000
C    -3.164000000    -2.662000000     2.845000000
H    -2.454000000    -3.037000000     3.579000000
C    -3.213000000    -3.296000000     1.549000000
O    -2.215000000    -4.181000000     1.214000000
C    -1.234000000    -3.696000000     0.300000000
C     0.105000000    -4.070000000     0.879000000
C     1.179000000    -3.878000000     0.035000000
H     1.048000000    -3.567000000    -0.998000000
C     0.340000000    -4.439000000     2.235000000
H    -0.445000000    -4.657000000     2.954000000
O    -1.340000000    -4.200000000    -1.084000000
H    -1.263000000    -2.597000000     0.265000000
C    -4.047000000    -2.728000000     0.528000000
C    -4.177000000    -3.389000000    -0.822000000
H    -5.156000000    -3.335000000    -1.301000000
H    -3.951000000    -4.451000000    -0.701000000
C    -3.248000000    -2.754000000    -1.884000000
C    -3.705000000    -1.857000000    -2.798000000
H    -4.671000000    -1.413000000    -2.571000000
C    -1.894000000    -3.273000000    -2.013000000
C    -1.138000000    -2.956000000    -3.129000000
H    -0.148000000    -3.364000000    -3.316000000
C    -1.595000000    -1.909000000    -4.010000000
O    -0.694000000    -1.459000000    -4.861000000
C    -0.074000000    -0.133000000    -4.704000000
C     1.422000000    -0.134000000    -4.910000000
C     2.145000000    -1.293000000    -4.781000000
H     1.628000000    -2.241000000    -4.656000000
C     2.136000000     1.051000000    -5.225000000
H     1.655000000     1.973000000    -5.539000000
O    -0.742000000     0.966000000    -5.430000000
H    -0.121000000     0.076000000    -3.625000000
C    -2.925000000    -1.409000000    -3.873000000
C    -3.284000000    -0.186000000    -4.742000000
H    -4.375000000    -0.149000000    -4.790000000
H    -2.907000000    -0.237000000    -5.765000000
C    -2.826000000     1.182000000    -4.247000000
C    -1.606000000     1.740000000    -4.658000000
C    -1.090000000     2.820000000    -3.997000000
H    -0.126000000     3.212000000    -4.310000000
C    -1.811000000     3.465000000    -2.990000000
O    -1.075000000     4.303000000    -2.155000000
C    -0.593000000     3.673000000    -0.937000000
H    -0.697000000     2.583000000    -1.045000000
C     0.855000000     4.000000000    -0.700000000
C     1.247000000     3.528000000     0.524000000
H     0.573000000     2.967000000     1.166000000
C     1.761000000     4.604000000    -1.596000000
H     1.418000000     4.874000000    -2.591000000
C     3.098000000     4.836000000    -1.181000000
O     4.085000000     5.291000000    -2.015000000
C     3.452000000     4.462000000     0.026000000
H     4.487000000     4.456000000     0.358000000
C     2.527000000     3.885000000     0.912000000
O     2.943000000     3.374000000     2.106000000
C     2.355000000     3.787000000     3.255000000
C     1.981000000     2.838000000     4.197000000
H     2.071000000     1.786000000     3.937000000
C     2.051000000     5.136000000     3.393000000
H     2.382000000     5.842000000     2.635000000
C     1.381000000     5.444000000     4.599000000
H     1.199000000     6.513000000     4.678000000
C     1.153000000     4.558000000     5.727000000
H     0.707000000     4.807000000     6.686000000
C     1.490000000     3.194000000     5.473000000
O     1.260000000     2.280000000     6.422000000
C     0.397000000     1.241000000     6.206000000
C     0.521000000     0.065000000     6.993000000
H     1.381000000     0.044000000     7.657000000
C    -0.172000000    -1.064000000     6.666000000
O    -0.077000000    -2.270000000     7.318000000
C     0.021000000    -3.520000000     6.676000000
C     0.857000000    -3.679000000     5.580000000
H     1.202000000    -2.765000000     5.102000000
C    -0.485000000    -4.655000000     7.347000000
H    -0.966000000    -4.480000000     8.306000000
C    -0.246000000    -6.001000000     6.817000000
H    -0.674000000    -6.843000000     7.355000000
C     0.486000000    -6.082000000     5.636000000
H     0.783000000    -7.032000000     5.199000000
C     1.064000000    -4.955000000     5.062000000
O     1.904000000    -5.070000000     3.957000000
C     1.682000000    -4.646000000     2.665000000
C     2.731000000    -4.286000000     1.820000000
H     3.737000000    -4.343000000     2.227000000
C     2.516000000    -3.960000000     0.453000000
O     3.654000000    -3.773000000    -0.358000000
C     3.666000000    -4.119000000    -1.691000000
C     3.836000000    -3.119000000    -2.632000000
H     3.875000000    -2.092000000    -2.276000000
C     3.691000000    -5.429000000    -2.068000000
H     3.614000000    -6.238000000    -1.347000000
C     3.749000000    -5.842000000    -3.357000000
H     3.881000000    -6.871000000    -3.682000000
C     3.961000000    -4.824000000    -4.306000000
H     3.940000000    -5.138000000    -5.346000000
C     4.009000000    -3.473000000    -3.959000000
O     4.178000000    -2.541000000    -4.922000000
C     3.586000000    -1.284000000    -4.877000000
C     4.243000000    -0.109000000    -5.074000000
H     5.323000000    -0.007000000    -5.135000000
C     3.529000000     1.068000000    -5.260000000
O     4.212000000     2.183000000    -5.610000000
C     4.127000000     3.427000000    -5.150000000
C     3.823000000     4.412000000    -6.088000000
H     3.902000000     4.171000000    -7.145000000
C     3.666000000     5.731000000    -5.667000000
H     3.367000000     6.413000000    -6.459000000
C     3.752000000     6.100000000    -4.327000000
H     3.478000000     7.118000000    -4.062000000
C     4.130000000     5.127000000    -3.388000000
C     4.258000000     3.789000000    -3.789000000
H     4.432000000     3.016000000    -3.045000000
C     2.532000000     0.375000000    -0.584000000
H     3.469000000     0.621000000    -1.078000000
C     1.352000000     0.368000000    -1.277000000
H     1.349000000     0.627000000    -2.332000000
C     0.231000000     0.218000000    -0.495000000
H    -0.713000000     0.176000000    -0.964000000
C     0.338000000    -0.085000000     0.850000000
H    -0.551000000    -0.265000000     1.449000000
C     1.518000000    -0.106000000     1.526000000
H     1.583000000    -0.267000000     2.599000000
C     2.644000000     0.186000000     0.818000000
C     3.998000000     0.377000000     1.460000000
O     4.121000000     0.035000000     2.636000000
O     5.042000000     0.539000000     0.825000000
O     4.548000000    -2.079000000     5.965000000
H     4.742000000    -2.145000000     5.030000000
H     4.034000000    -1.276000000     6.047000000
O     6.201000000     1.571000000     6.062000000
H     6.591000000     1.705000000     5.198000000
H     6.365000000     2.391000000     6.528000000
O     6.949000000    -4.513000000    -1.662000000
H     6.596000000    -5.400000000    -1.602000000
H     6.664000000    -4.086000000    -0.854000000
O     3.842000000     0.413000000     5.222000000
H     4.766000000     0.584000000     5.407000000
H     3.808000000     0.279000000     4.275000000
O     6.664000000     1.819000000    -3.397000000
H     7.586000000     1.568000000    -3.453000000
H     6.295000000     1.233000000    -2.737000000
O     6.523000000     2.757000000     1.049000000
H     6.657000000     3.053000000     0.149000000
H     5.870000000     2.060000000     0.977000000
O     7.470000000     1.908000000     3.769000000
H     7.282000000     1.977000000     2.833000000
H     7.821000000     1.025000000     3.879000000
O     8.578000000     0.362000000     0.996000000
H     9.138000000     0.736000000     0.316000000
H     7.811000000     0.933000000     1.017000000
O     3.833000000     1.683000000     8.073000000
H     3.408000000     1.286000000     7.313000000
H     4.742000000     1.808000000     7.801000000
O     6.149000000    -2.228000000     0.736000000
H     5.834000000    -2.599000000     1.560000000
H     5.986000000    -1.289000000     0.818000000
O     5.540000000     4.361000000     3.660000000
H     4.801000000     3.827000000     3.369000000
H     6.178000000     4.294000000     2.950000000
O     8.919000000    -3.425000000     0.675000000
H     8.306000000    -4.155000000     0.764000000
H     8.388000000    -2.645000000     0.842000000
O     7.967000000    -0.836000000     4.892000000
H     8.240000000    -0.466000000     5.731000000
H     8.520000000    -1.609000000     4.779000000
O     7.422000000     5.891000000     0.537000000
H     8.024000000     6.345000000    -0.052000000
H     7.492000000     4.969000000     0.288000000
O     5.738000000    -1.733000000     3.538000000
H     6.588000000    -1.311000000     3.669000000
H     5.195000000    -1.057000000     3.134000000
O     5.986000000     0.015000000    -1.508000000
H     6.103000000    -0.931000000    -1.415000000
H     5.579000000     0.288000000    -0.686000000
O     6.533000000    -0.898000000     7.532000000
H     6.651000000     0.046000000     7.429000000
H     5.879000000    -1.131000000     6.873000000
O     8.154000000     4.114000000     5.083000000
H     7.995000000     3.233000000     4.744000000
H     7.340000000     4.587000000     4.911000000
O     7.402000000     3.437000000    -1.271000000
H     8.250000000     3.344000000    -1.705000000
H     6.794000000     2.948000000    -1.826000000
