215
-1441.11411
C    -0.770000000     1.838000000     5.096000000
H    -1.356000000     0.939000000     5.267000000
C    -1.044000000     2.760000000     4.057000000
C    -0.134000000     3.885000000     3.900000000
H    -0.272000000     4.578000000     3.074000000
C    -2.148000000     2.516000000     3.054000000
O    -3.236000000     1.788000000     3.638000000
H    -1.710000000     1.917000000     2.243000000
O    -2.607000000     3.741000000     2.421000000
C    -2.703000000     3.689000000     1.054000000
C    -1.571000000     4.036000000     0.315000000
H    -0.647000000     4.277000000     0.835000000
C    -1.636000000     4.076000000    -1.049000000
O    -0.579000000     4.413000000    -1.859000000
C    -2.777000000     3.591000000    -1.651000000
C    -2.924000000     3.379000000    -3.183000000
H    -3.988000000     3.330000000    -3.421000000
C    -2.269000000     2.089000000    -3.668000000
C    -3.033000000     0.896000000    -3.724000000
H    -4.087000000     0.864000000    -3.459000000
H    -2.560000000     4.255000000    -3.724000000
C    -3.843000000     3.011000000    -0.970000000
H    -4.674000000     2.494000000    -1.443000000
C    -3.783000000     3.043000000     0.413000000
C    -4.946000000     2.495000000     1.123000000
H    -5.751000000     2.347000000     0.399000000
H    -5.251000000     3.238000000     1.863000000
C    -4.514000000     1.102000000     1.591000000
C    -4.907000000    -0.019000000     0.862000000
H    -5.471000000     0.173000000    -0.048000000
C    -3.800000000     0.810000000     2.768000000
C    -3.447000000    -0.528000000     3.034000000
H    -2.774000000    -0.670000000     3.876000000
C    -3.820000000    -1.616000000     2.290000000
O    -3.236000000    -2.794000000     2.607000000
C    -2.250000000    -3.310000000     1.705000000
C    -1.065000000    -3.929000000     2.451000000
C    -0.363000000    -5.019000000     1.988000000
H    -0.744000000    -5.544000000     1.115000000
C    -0.557000000    -3.302000000     3.598000000
H    -1.065000000    -2.456000000     4.053000000
O    -2.842000000    -4.215000000     0.803000000
H    -1.978000000    -2.448000000     1.078000000
C    -4.566000000    -1.368000000     1.169000000
C    -5.091000000    -2.631000000     0.351000000
H    -6.042000000    -2.456000000    -0.156000000
H    -5.159000000    -3.534000000     0.961000000
C    -4.149000000    -2.877000000    -0.797000000
C    -4.174000000    -2.237000000    -2.038000000
H    -4.949000000    -1.493000000    -2.206000000
C    -3.064000000    -3.725000000    -0.496000000
C    -1.982000000    -3.799000000    -1.361000000
H    -1.194000000    -4.467000000    -1.024000000
C    -2.026000000    -3.246000000    -2.637000000
O    -0.812000000    -3.329000000    -3.344000000
C     0.125000000    -2.211000000    -3.418000000
C     1.568000000    -2.680000000    -3.570000000
C     1.981000000    -3.689000000    -2.687000000
H     1.350000000    -4.039000000    -1.874000000
C     2.393000000    -2.067000000    -4.464000000
H     2.049000000    -1.219000000    -5.049000000
O    -0.370000000    -1.512000000    -4.611000000
H    -0.006000000    -1.593000000    -2.517000000
C    -3.109000000    -2.390000000    -2.967000000
C    -3.122000000    -1.644000000    -4.268000000
H    -4.159000000    -1.413000000    -4.524000000
H    -2.654000000    -2.312000000    -4.994000000
C    -2.395000000    -0.289000000    -4.169000000
C    -1.032000000    -0.312000000    -4.427000000
C    -0.299000000     0.886000000    -4.224000000
H     0.787000000     0.841000000    -4.227000000
C    -0.976000000     2.034000000    -3.958000000
O    -0.176000000     3.108000000    -3.789000000
C     0.182000000     3.286000000    -2.346000000
H    -0.127000000     2.388000000    -1.792000000
C     1.661000000     3.465000000    -2.193000000
C     2.095000000     4.109000000    -1.005000000
H     1.249000000     4.488000000    -0.437000000
C     2.598000000     3.039000000    -3.159000000
H     2.278000000     2.549000000    -4.076000000
C     3.938000000     3.161000000    -2.896000000
O     4.897000000     2.801000000    -3.789000000
C     4.301000000     4.042000000    -1.828000000
H     5.349000000     4.321000000    -1.749000000
C     3.434000000     4.449000000    -0.848000000
O     3.963000000     5.199000000     0.200000000
C     3.246000000     5.921000000     1.236000000
C     2.708000000     5.180000000     2.300000000
H     2.922000000     4.115000000     2.313000000
C     2.841000000     7.289000000     1.086000000
H     3.148000000     7.757000000     0.155000000
C     1.998000000     7.874000000     2.089000000
H     1.670000000     8.908000000     2.025000000
C     1.659000000     7.169000000     3.281000000
H     1.008000000     7.613000000     4.030000000
C     2.038000000     5.778000000     3.394000000
O     1.814000000     5.104000000     4.614000000
C     0.885000000     4.125000000     4.766000000
C     1.065000000     3.214000000     5.834000000
H     1.885000000     3.431000000     6.513000000
C     0.198000000     2.187000000     6.079000000
O     0.508000000     1.335000000     7.136000000
C     0.311000000    -0.068000000     7.167000000
C     0.761000000    -0.955000000     6.177000000
H     1.266000000    -0.532000000     5.312000000
C    -0.387000000    -0.656000000     8.259000000
H    -0.897000000     0.015000000     8.945000000
C    -0.422000000    -2.010000000     8.424000000
H    -0.913000000    -2.504000000     9.259000000
C     0.114000000    -2.851000000     7.443000000
H    -0.016000000    -3.925000000     7.547000000
C     0.678000000    -2.288000000     6.312000000
O     1.277000000    -3.102000000     5.345000000
C     0.663000000    -3.706000000     4.171000000
C     1.421000000    -4.718000000     3.599000000
H     2.400000000    -4.999000000     3.979000000
C     0.920000000    -5.406000000     2.538000000
O     1.671000000    -6.459000000     1.992000000
C     1.867000000    -6.568000000     0.638000000
C     2.788000000    -5.772000000    -0.036000000
H     3.391000000    -5.022000000     0.468000000
C     1.199000000    -7.503000000    -0.106000000
H     0.542000000    -8.224000000     0.374000000
C     1.527000000    -7.727000000    -1.461000000
H     0.891000000    -8.489000000    -1.905000000
C     2.380000000    -6.871000000    -2.105000000
H     2.513000000    -6.895000000    -3.183000000
C     3.033000000    -5.928000000    -1.372000000
O     3.789000000    -5.025000000    -1.939000000
C     3.315000000    -4.043000000    -2.784000000
C     4.171000000    -3.515000000    -3.653000000
H     5.211000000    -3.824000000    -3.597000000
C     3.729000000    -2.482000000    -4.510000000
O     4.660000000    -1.817000000    -5.264000000
C     4.582000000    -0.477000000    -5.429000000
C     4.360000000    -0.029000000    -6.737000000
H     4.256000000    -0.822000000    -7.473000000
C     4.377000000     1.337000000    -7.082000000
H     4.422000000     1.576000000    -8.141000000
C     4.470000000     2.264000000    -6.087000000
H     4.359000000     3.274000000    -6.474000000
C     4.753000000     1.863000000    -4.773000000
C     4.725000000     0.467000000    -4.428000000
H     4.879000000     0.113000000    -3.412000000
C     1.581000000    -1.398000000     0.986000000
H     2.302000000    -2.201000000     1.121000000
C     0.446000000    -1.626000000     0.249000000
H     0.193000000    -2.654000000    -0.001000000
C    -0.532000000    -0.679000000     0.018000000
H    -1.422000000    -0.996000000    -0.520000000
C    -0.301000000     0.639000000     0.469000000
H    -1.001000000     1.424000000     0.198000000
C     0.830000000     0.965000000     1.151000000
H     1.015000000     1.951000000     1.570000000
C     1.814000000    -0.045000000     1.482000000
C     3.004000000     0.325000000     2.270000000
O     3.399000000     1.439000000     2.368000000
O     3.699000000    -0.635000000     2.589000000
O     6.556000000     2.749000000     5.860000000
H     7.012000000     2.758000000     5.018000000
H     5.658000000     2.496000000     5.644000000
O     5.322000000     2.764000000     1.092000000
H     4.763000000     2.072000000     1.445000000
H     4.754000000     3.249000000     0.494000000
O     5.903000000    -5.192000000    -0.065000000
H     5.942000000    -5.266000000    -1.019000000
H     5.776000000    -4.258000000     0.098000000
O     7.992000000    -2.913000000     4.558000000
H     7.891000000    -2.569000000     3.671000000
H     8.383000000    -3.778000000     4.437000000
O     4.249000000    -5.320000000     5.749000000
H     3.956000000    -4.782000000     5.014000000
H     4.059000000    -4.792000000     6.524000000
O     3.988000000    -0.239000000     7.548000000
H     4.294000000     0.656000000     7.697000000
H     4.705000000    -0.662000000     7.075000000
O     6.378000000     5.314000000     2.463000000
H     7.194000000     4.887000000     2.203000000
H     5.697000000     4.842000000     1.983000000
O     6.372000000    -1.152000000    -1.337000000
H     7.298000000    -1.112000000    -1.099000000
H     6.364000000    -1.567000000    -2.200000000
O     5.126000000     5.510000000     4.750000000
H     5.820000000     5.422000000     4.097000000
H     4.569000000     4.743000000     4.613000000
O     4.747000000    -2.279000000     0.736000000
H     4.328000000    -1.632000000     1.304000000
H     5.048000000    -1.773000000    -0.019000000
O     4.869000000    -2.865000000     3.660000000
H     5.405000000    -3.173000000     2.928000000
H     4.400000000    -2.107000000     3.310000000
O     3.730000000    -3.671000000     7.805000000
H     4.229000000    -3.363000000     8.562000000
H     3.342000000    -2.878000000     7.435000000
O     7.661000000     2.773000000     3.213000000
H     8.472000000     2.471000000     2.803000000
H     6.968000000     2.304000000     2.749000000
O     6.042000000     0.450000000     3.356000000
H     5.168000000     0.175000000     3.081000000
H     6.040000000     0.338000000     4.307000000
O     4.038000000     2.369000000     4.651000000
H     3.223000000     2.685000000     5.040000000
H     3.762000000     1.900000000     3.863000000
O     5.960000000    -1.327000000     5.775000000
H     5.566000000    -2.015000000     5.239000000
H     6.903000000    -1.439000000     5.653000000
O     9.098000000    -0.032000000     3.808000000
H     9.191000000    -0.787000000     3.226000000
H     8.213000000     0.293000000     3.638000000
O     7.917000000    -1.858000000     1.872000000
H     7.037000000    -1.518000000     1.712000000
H     8.262000000    -2.049000000     1.000000000
O     7.553000000     3.477000000    -0.191000000
H     6.648000000     3.224000000    -0.010000000
H     7.732000000     3.120000000    -1.061000000
