215
-1463.13026
C    -0.911000000    -0.022000000     5.575000000
H    -1.473000000    -0.947000000     5.477000000
C    -1.202000000     1.091000000     4.724000000
C    -0.414000000     2.256000000     4.889000000
H    -0.557000000     3.109000000     4.230000000
C    -2.208000000     1.004000000     3.585000000
O    -3.158000000    -0.016000000     3.903000000
H    -1.687000000     0.616000000     2.698000000
O    -2.804000000     2.239000000     3.334000000
C    -3.113000000     2.682000000     2.074000000
C    -2.253000000     3.546000000     1.508000000
H    -1.412000000     3.857000000     2.122000000
C    -2.423000000     4.002000000     0.241000000
O    -1.449000000     4.803000000    -0.284000000
C    -3.489000000     3.403000000    -0.528000000
C    -3.677000000     3.749000000    -2.021000000
H    -4.721000000     3.540000000    -2.263000000
C    -2.763000000     2.889000000    -2.943000000
C    -3.228000000     1.658000000    -3.387000000
H    -4.258000000     1.340000000    -3.243000000
H    -3.570000000     4.813000000    -2.244000000
C    -4.366000000     2.499000000     0.019000000
H    -5.061000000     2.023000000    -0.668000000
C    -4.177000000     2.141000000     1.356000000
C    -5.133000000     1.148000000     2.038000000
H    -6.122000000     1.124000000     1.576000000
H    -5.265000000     1.267000000     3.116000000
C    -4.530000000    -0.246000000     1.951000000
C    -4.930000000    -1.055000000     0.866000000
H    -5.536000000    -0.650000000     0.060000000
C    -3.649000000    -0.698000000     2.910000000
C    -3.066000000    -1.928000000     2.724000000
H    -2.330000000    -2.287000000     3.439000000
C    -3.310000000    -2.702000000     1.586000000
O    -2.653000000    -3.908000000     1.495000000
C    -1.508000000    -3.838000000     0.578000000
C    -0.195000000    -4.417000000     1.147000000
C     0.821000000    -4.913000000     0.270000000
H     0.680000000    -4.928000000    -0.807000000
C     0.013000000    -4.409000000     2.461000000
H    -0.720000000    -4.105000000     3.204000000
O    -1.856000000    -4.396000000    -0.729000000
H    -1.346000000    -2.766000000     0.392000000
C    -4.301000000    -2.312000000     0.639000000
C    -4.542000000    -3.042000000    -0.681000000
H    -5.498000000    -2.699000000    -1.081000000
H    -4.687000000    -4.115000000    -0.542000000
C    -3.496000000    -2.788000000    -1.751000000
C    -3.652000000    -1.796000000    -2.710000000
H    -4.481000000    -1.094000000    -2.764000000
C    -2.252000000    -3.472000000    -1.678000000
C    -1.274000000    -3.180000000    -2.636000000
H    -0.403000000    -3.828000000    -2.689000000
C    -1.515000000    -2.237000000    -3.630000000
O    -0.519000000    -1.956000000    -4.486000000
C     0.273000000    -0.748000000    -4.238000000
C     1.765000000    -1.038000000    -4.466000000
C     2.285000000    -2.298000000    -4.151000000
H     1.645000000    -3.092000000    -3.774000000
C     2.655000000    -0.016000000    -4.844000000
H     2.273000000     0.944000000    -5.181000000
O    -0.096000000     0.352000000    -5.033000000
H     0.288000000    -0.548000000    -3.156000000
C    -2.671000000    -1.460000000    -3.647000000
C    -2.855000000    -0.413000000    -4.715000000
H    -3.841000000    -0.492000000    -5.177000000
H    -2.171000000    -0.658000000    -5.529000000
C    -2.383000000     0.889000000    -4.184000000
C    -1.040000000     1.227000000    -4.448000000
C    -0.616000000     2.419000000    -3.915000000
H     0.439000000     2.681000000    -3.886000000
C    -1.455000000     3.268000000    -3.177000000
O    -0.893000000     4.316000000    -2.505000000
C    -0.549000000     4.106000000    -1.164000000
H    -0.627000000     3.027000000    -0.965000000
C     0.963000000     4.381000000    -0.937000000
C     1.378000000     4.429000000     0.416000000
H     0.675000000     4.258000000     1.227000000
C     1.931000000     4.446000000    -1.914000000
H     1.579000000     4.525000000    -2.939000000
C     3.262000000     4.581000000    -1.613000000
O     4.197000000     4.644000000    -2.672000000
C     3.694000000     4.583000000    -0.307000000
H     4.763000000     4.710000000    -0.154000000
C     2.738000000     4.438000000     0.700000000
O     3.209000000     4.205000000     1.997000000
C     2.543000000     4.733000000     3.094000000
C     2.103000000     3.858000000     4.077000000
H     2.280000000     2.794000000     3.944000000
C     2.168000000     6.082000000     3.204000000
H     2.567000000     6.807000000     2.498000000
C     1.593000000     6.619000000     4.332000000
H     1.282000000     7.652000000     4.464000000
C     1.258000000     5.742000000     5.381000000
H     0.866000000     6.109000000     6.326000000
C     1.530000000     4.367000000     5.243000000
O     1.092000000     3.542000000     6.304000000
C     0.430000000     2.404000000     5.968000000
C     0.832000000     1.276000000     6.723000000
H     1.698000000     1.298000000     7.379000000
C     0.092000000     0.073000000     6.569000000
O     0.573000000    -1.092000000     7.198000000
C     0.353000000    -2.422000000     6.780000000
C     1.076000000    -3.035000000     5.772000000
H     1.852000000    -2.530000000     5.202000000
C    -0.544000000    -3.121000000     7.573000000
H    -1.073000000    -2.635000000     8.389000000
C    -0.891000000    -4.436000000     7.251000000
H    -1.634000000    -4.985000000     7.823000000
C    -0.311000000    -4.993000000     6.132000000
H    -0.638000000    -5.987000000     5.839000000
C     0.656000000    -4.356000000     5.431000000
O     1.340000000    -4.977000000     4.439000000
C     1.156000000    -4.892000000     3.091000000
C     2.175000000    -5.336000000     2.246000000
H     3.179000000    -5.579000000     2.586000000
C     1.933000000    -5.382000000     0.834000000
O     2.972000000    -5.668000000     0.098000000
C     2.943000000    -5.731000000    -1.245000000
C     3.545000000    -4.733000000    -2.002000000
H     3.962000000    -3.850000000    -1.526000000
C     2.557000000    -6.889000000    -1.887000000
H     2.180000000    -7.712000000    -1.285000000
C     2.593000000    -6.986000000    -3.301000000
H     2.256000000    -7.882000000    -3.815000000
C     2.964000000    -5.887000000    -4.077000000
H     3.037000000    -5.965000000    -5.158000000
C     3.519000000    -4.749000000    -3.399000000
O     4.214000000    -3.797000000    -4.101000000
C     3.672000000    -2.535000000    -4.319000000
C     4.521000000    -1.532000000    -4.721000000
H     5.595000000    -1.653000000    -4.837000000
C     4.014000000    -0.227000000    -4.973000000
O     4.652000000     0.781000000    -5.576000000
C     4.436000000     2.115000000    -5.434000000
C     4.090000000     2.896000000    -6.536000000
H     4.057000000     2.401000000    -7.503000000
C     3.671000000     4.220000000    -6.287000000
H     3.287000000     4.779000000    -7.137000000
C     3.596000000     4.750000000    -4.994000000
H     3.434000000     5.791000000    -4.725000000
C     4.009000000     3.975000000    -3.906000000
C     4.541000000     2.678000000    -4.172000000
H     4.963000000     2.107000000    -3.349000000
C     1.978000000    -1.650000000     0.310000000
H     2.541000000    -2.565000000     0.147000000
C     1.015000000    -1.199000000    -0.568000000
H     0.874000000    -1.655000000    -1.545000000
C     0.156000000    -0.166000000    -0.260000000
H    -0.564000000     0.103000000    -1.071000000
C     0.252000000     0.532000000     0.909000000
H    -0.414000000     1.336000000     1.213000000
C     1.235000000     0.089000000     1.844000000
H     1.511000000     0.669000000     2.721000000
C     2.139000000    -0.949000000     1.491000000
C     3.260000000    -1.237000000     2.466000000
O     3.254000000    -0.791000000     3.605000000
O     4.044000000    -2.102000000     2.166000000
O     5.017000000    -7.119000000     1.534000000
H     4.494000000    -7.867000000     1.825000000
H     4.395000000    -6.560000000     1.067000000
O     4.441000000     1.463000000     1.065000000
H     4.433000000     2.382000000     0.796000000
H     4.359000000     1.491000000     2.018000000
O     7.911000000    -1.353000000    -2.338000000
H     8.506000000    -2.092000000    -2.463000000
H     7.165000000    -1.724000000    -1.867000000
O     6.139000000    -5.714000000     3.713000000
H     5.654000000    -6.199000000     3.045000000
H     5.467000000    -5.227000000     4.190000000
O     6.500000000     0.318000000     7.225000000
H     6.445000000     1.251000000     7.433000000
H     6.444000000    -0.120000000     8.074000000
O     5.854000000     4.034000000     4.835000000
H     6.731000000     3.750000000     4.577000000
H     5.306000000     3.259000000     4.714000000
O     4.925000000    -1.192000000    -0.187000000
H     4.649000000    -0.286000000    -0.323000000
H     4.737000000    -1.363000000     0.736000000
O     6.314000000    -3.449000000    -1.052000000
H     6.715000000    -3.594000000    -0.195000000
H     5.744000000    -2.691000000    -0.924000000
O     6.575000000    -3.293000000     5.977000000
H     5.618000000    -3.280000000     6.007000000
H     6.795000000    -2.812000000     5.179000000
O     9.325000000    -0.544000000     2.359000000
H    10.126000000    -0.311000000     1.891000000
H     8.619000000    -0.327000000     1.749000000
O     6.646000000    -2.356000000     2.848000000
H     6.992000000    -3.236000000     2.700000000
H     5.704000000    -2.441000000     2.702000000
O     3.292000000    -3.418000000     8.315000000
H     3.373000000    -2.612000000     7.805000000
H     2.510000000    -3.284000000     8.850000000
O     4.713000000     1.714000000     4.460000000
H     4.205000000     0.905000000     4.529000000
H     5.507000000     1.458000000     3.990000000
O     6.963000000     0.280000000     3.535000000
H     7.917000000     0.340000000     3.481000000
H     6.761000000    -0.599000000     3.217000000
O     8.040000000    -4.271000000     0.954000000
H     8.592000000    -3.758000000     1.545000000
H     8.390000000    -5.160000000     1.013000000
O     3.894000000    -1.438000000     6.337000000
H     3.414000000    -1.031000000     5.615000000
H     4.704000000    -0.932000000     6.400000000
O     4.304000000    -3.962000000     4.244000000
H     4.305000000    -3.327000000     3.528000000
H     3.449000000    -3.851000000     4.661000000
O     8.748000000    -1.027000000     5.897000000
H     8.008000000    -0.508000000     6.212000000
H     8.347000000    -1.735000000     5.393000000
O     7.612000000     0.944000000     0.735000000
H     6.741000000     1.185000000     1.051000000
H     7.514000000     0.886000000    -0.216000000
