215
-1447.83432
C    -0.586000000     0.458000000     5.364000000
H    -1.204000000    -0.434000000     5.301000000
C    -0.785000000     1.475000000     4.377000000
C    -0.010000000     2.578000000     4.395000000
H    -0.254000000     3.363000000     3.683000000
C    -1.855000000     1.357000000     3.352000000
O    -2.814000000     0.298000000     3.767000000
H    -1.328000000     0.995000000     2.457000000
O    -2.525000000     2.626000000     3.166000000
C    -2.807000000     2.891000000     1.856000000
C    -2.004000000     3.792000000     1.098000000
H    -1.158000000     4.257000000     1.598000000
C    -2.268000000     4.085000000    -0.255000000
O    -1.285000000     4.777000000    -0.918000000
C    -3.354000000     3.378000000    -0.862000000
C    -3.756000000     3.555000000    -2.298000000
H    -4.780000000     3.264000000    -2.541000000
C    -2.830000000     2.598000000    -3.056000000
C    -3.341000000     1.292000000    -3.339000000
H    -4.292000000     0.983000000    -2.913000000
H    -3.603000000     4.604000000    -2.559000000
C    -4.141000000     2.499000000    -0.148000000
H    -4.920000000     1.951000000    -0.673000000
C    -3.907000000     2.298000000     1.238000000
C    -4.736000000     1.201000000     1.908000000
H    -5.627000000     1.171000000     1.277000000
H    -5.064000000     1.537000000     2.894000000
C    -4.123000000    -0.148000000     1.843000000
C    -4.523000000    -1.075000000     0.876000000
H    -5.273000000    -0.735000000     0.167000000
C    -3.316000000    -0.606000000     2.879000000
C    -2.765000000    -1.905000000     2.851000000
H    -2.037000000    -2.178000000     3.611000000
C    -3.218000000    -2.789000000     1.900000000
O    -2.611000000    -4.009000000     1.911000000
C    -1.589000000    -4.035000000     0.951000000
C    -0.417000000    -4.779000000     1.587000000
C     0.539000000    -5.422000000     0.865000000
H     0.457000000    -5.483000000    -0.217000000
C    -0.007000000    -4.484000000     2.900000000
H    -0.589000000    -3.740000000     3.438000000
O    -2.034000000    -4.647000000    -0.322000000
H    -1.318000000    -3.009000000     0.663000000
C    -4.019000000    -2.342000000     0.892000000
C    -4.572000000    -3.328000000    -0.177000000
H    -5.521000000    -2.990000000    -0.599000000
H    -4.714000000    -4.342000000     0.203000000
C    -3.663000000    -3.288000000    -1.387000000
C    -4.004000000    -2.487000000    -2.523000000
H    -4.928000000    -1.919000000    -2.593000000
C    -2.369000000    -3.912000000    -1.361000000
C    -1.438000000    -3.673000000    -2.316000000
H    -0.591000000    -4.355000000    -2.322000000
C    -1.684000000    -2.685000000    -3.239000000
O    -0.647000000    -2.452000000    -4.147000000
C     0.102000000    -1.214000000    -3.976000000
C     1.618000000    -1.441000000    -4.239000000
C     2.243000000    -2.458000000    -3.510000000
H     1.537000000    -3.067000000    -2.951000000
C     2.476000000    -0.409000000    -4.694000000
H     2.061000000     0.483000000    -5.157000000
O    -0.345000000    -0.171000000    -4.896000000
H    -0.046000000    -0.908000000    -2.930000000
C    -2.972000000    -2.134000000    -3.409000000
C    -3.215000000    -0.992000000    -4.393000000
H    -4.288000000    -0.793000000    -4.446000000
H    -2.810000000    -1.230000000    -5.378000000
C    -2.548000000     0.358000000    -4.004000000
C    -1.234000000     0.690000000    -4.413000000
C    -0.724000000     1.944000000    -4.131000000
H     0.310000000     2.157000000    -4.390000000
C    -1.497000000     2.882000000    -3.428000000
O    -0.841000000     4.071000000    -3.067000000
C    -0.349000000     4.114000000    -1.733000000
H    -0.342000000     3.094000000    -1.323000000
C     0.989000000     4.663000000    -1.511000000
C     1.446000000     5.103000000    -0.244000000
H     0.775000000     5.142000000     0.611000000
C     2.011000000     4.495000000    -2.445000000
H     1.719000000     4.056000000    -3.395000000
C     3.311000000     4.867000000    -2.277000000
O     4.312000000     4.670000000    -3.209000000
C     3.698000000     5.273000000    -1.003000000
H     4.730000000     5.451000000    -0.712000000
C     2.812000000     5.347000000     0.062000000
O     3.273000000     5.635000000     1.333000000
C     2.397000000     5.864000000     2.451000000
C     2.506000000     4.979000000     3.518000000
H     3.243000000     4.180000000     3.526000000
C     1.347000000     6.749000000     2.393000000
H     1.309000000     7.476000000     1.587000000
C     0.464000000     6.861000000     3.455000000
H    -0.200000000     7.720000000     3.510000000
C     0.629000000     6.011000000     4.588000000
H    -0.087000000     6.101000000     5.402000000
C     1.655000000     5.073000000     4.627000000
O     1.601000000     3.996000000     5.583000000
C     0.914000000     2.839000000     5.415000000
C     1.114000000     1.838000000     6.401000000
H     1.806000000     2.032000000     7.217000000
C     0.411000000     0.579000000     6.327000000
O     0.762000000    -0.447000000     7.165000000
C     0.451000000    -1.728000000     6.966000000
C     1.213000000    -2.467000000     5.991000000
H     2.063000000    -1.979000000     5.521000000
C    -0.466000000    -2.406000000     7.761000000
H    -1.019000000    -1.850000000     8.513000000
C    -0.880000000    -3.704000000     7.458000000
H    -1.704000000    -4.165000000     7.995000000
C    -0.242000000    -4.402000000     6.424000000
H    -0.452000000    -5.453000000     6.241000000
C     0.845000000    -3.818000000     5.704000000
O     1.607000000    -4.610000000     4.727000000
C     1.150000000    -4.973000000     3.485000000
C     2.011000000    -5.689000000     2.718000000
H     2.957000000    -6.016000000     3.142000000
C     1.643000000    -6.053000000     1.404000000
O     2.584000000    -6.735000000     0.673000000
C     2.758000000    -6.478000000    -0.707000000
C     3.430000000    -5.312000000    -1.165000000
H     3.813000000    -4.634000000    -0.406000000
C     2.248000000    -7.271000000    -1.755000000
H     1.862000000    -8.215000000    -1.379000000
C     2.291000000    -6.836000000    -3.079000000
H     1.876000000    -7.390000000    -3.916000000
C     2.851000000    -5.639000000    -3.407000000
H     2.863000000    -5.375000000    -4.462000000
C     3.513000000    -4.905000000    -2.481000000
O     4.243000000    -3.801000000    -2.871000000
C     3.619000000    -2.681000000    -3.401000000
C     4.427000000    -1.750000000    -4.072000000
H     5.509000000    -1.848000000    -4.024000000
C     3.863000000    -0.562000000    -4.597000000
O     4.796000000     0.350000000    -5.053000000
C     4.569000000     1.652000000    -5.270000000
C     4.260000000     2.173000000    -6.536000000
H     4.304000000     1.469000000    -7.363000000
C     4.083000000     3.526000000    -6.699000000
H     3.982000000     3.909000000    -7.711000000
C     4.055000000     4.339000000    -5.578000000
H     3.807000000     5.392000000    -5.680000000
C     4.244000000     3.803000000    -4.291000000
C     4.468000000     2.460000000    -4.101000000
H     4.588000000     2.068000000    -3.095000000
C     2.123000000    -1.827000000     0.926000000
H     2.955000000    -2.520000000     1.029000000
C     1.128000000    -2.125000000     0.026000000
H     1.164000000    -3.092000000    -0.468000000
C     0.144000000    -1.124000000    -0.300000000
H    -0.687000000    -1.254000000    -1.028000000
C     0.213000000     0.155000000     0.319000000
H    -0.554000000     0.897000000     0.115000000
C     1.156000000     0.383000000     1.328000000
H     1.192000000     1.323000000     1.873000000
C     2.126000000    -0.640000000     1.674000000
C     3.236000000    -0.475000000     2.738000000
O     3.402000000     0.632000000     3.150000000
O     3.893000000    -1.473000000     3.125000000
O     3.949000000    -4.966000000     6.733000000
H     4.294000000    -4.101000000     6.511000000
H     3.001000000    -4.876000000     6.644000000
O     5.904000000    -6.719000000     3.898000000
H     5.184000000    -7.344000000     3.976000000
H     5.495000000    -5.864000000     4.031000000
O     5.457000000     2.029000000     2.364000000
H     4.540000000     1.792000000     2.501000000
H     5.513000000     2.941000000     2.648000000
O     7.242000000    -1.154000000     5.770000000
H     8.076000000    -0.750000000     6.011000000
H     7.113000000    -0.906000000     4.854000000
O     4.836000000     1.850000000     5.256000000
H     5.127000000     1.310000000     5.990000000
H     4.469000000     1.226000000     4.629000000
O     5.793000000     1.053000000    -0.358000000
H     6.040000000     0.137000000    -0.225000000
H     5.541000000     1.362000000     0.512000000
O     7.364000000    -0.903000000    -2.689000000
H     7.004000000    -0.915000000    -1.803000000
H     7.252000000    -1.799000000    -3.006000000
O     5.878000000    -4.117000000     4.526000000
H     5.549000000    -3.328000000     4.956000000
H     6.635000000    -4.378000000     5.050000000
O     6.649000000    -1.593000000    -0.243000000
H     7.535000000    -1.771000000     0.073000000
H     6.076000000    -1.930000000     0.446000000
O     5.563000000     0.363000000     7.646000000
H     5.139000000    -0.401000000     8.036000000
H     6.334000000     0.009000000     7.203000000
O     8.826000000     2.977000000     2.999000000
H     7.926000000     3.285000000     2.891000000
H     9.357000000     3.773000000     2.968000000
O     6.627000000    -0.248000000     3.248000000
H     6.517000000     0.652000000     2.939000000
H     5.741000000    -0.610000000     3.250000000
O     6.563000000    -4.676000000    -0.857000000
H     6.390000000    -5.200000000    -0.075000000
H     6.535000000    -3.770000000    -0.549000000
O     4.439000000    -2.230000000     5.572000000
H     4.150000000    -1.485000000     6.099000000
H     4.217000000    -1.987000000     4.673000000
O     5.220000000    -3.115000000     1.713000000
H     4.659000000    -2.595000000     2.288000000
H     5.258000000    -3.975000000     2.131000000
O     7.482000000     2.980000000    -1.431000000
H     6.833000000     2.311000000    -1.212000000
H     7.719000000     2.796000000    -2.340000000
O     8.358000000    -3.673000000     2.989000000
H     8.775000000    -2.884000000     2.641000000
H     7.420000000    -3.493000000     2.931000000
O     4.422000000     4.160000000     6.606000000
H     4.425000000     4.972000000     6.100000000
H     4.505000000     3.469000000     5.949000000
O     8.827000000    -1.343000000     1.901000000
H     9.305000000    -0.526000000     1.761000000
H     7.949000000    -1.066000000     2.162000000
