215
-1452.77505
C    -0.362000000     2.177000000     5.080000000
H    -1.286000000     1.933000000     5.597000000
C    -0.358000000     2.804000000     3.861000000
C     0.906000000     3.126000000     3.366000000
H     1.025000000     3.522000000     2.361000000
C    -1.541000000     2.872000000     2.933000000
O    -2.742000000     2.510000000     3.600000000
H    -1.364000000     2.100000000     2.170000000
O    -1.665000000     4.273000000     2.337000000
C    -1.865000000     4.197000000     1.044000000
C    -0.800000000     4.417000000     0.109000000
H     0.125000000     4.757000000     0.566000000
C    -0.946000000     4.252000000    -1.237000000
O     0.134000000     4.551000000    -2.052000000
C    -2.165000000     3.767000000    -1.685000000
C    -2.454000000     3.709000000    -3.174000000
H    -3.520000000     3.688000000    -3.407000000
C    -1.918000000     2.444000000    -3.753000000
C    -2.796000000     1.330000000    -3.869000000
H    -3.812000000     1.468000000    -3.509000000
H    -2.047000000     4.559000000    -3.724000000
C    -3.167000000     3.452000000    -0.795000000
H    -4.173000000     3.277000000    -1.168000000
C    -3.045000000     3.741000000     0.520000000
C    -4.215000000     3.441000000     1.369000000
H    -5.124000000     3.639000000     0.797000000
H    -4.388000000     4.085000000     2.234000000
C    -4.233000000     1.957000000     1.774000000
C    -4.982000000     0.988000000     1.117000000
H    -5.553000000     1.238000000     0.226000000
C    -3.507000000     1.597000000     2.879000000
C    -3.343000000     0.293000000     3.270000000
H    -2.606000000    -0.015000000     4.008000000
C    -3.878000000    -0.710000000     2.504000000
O    -3.486000000    -1.974000000     2.721000000
C    -2.459000000    -2.551000000     1.805000000
C    -1.449000000    -3.432000000     2.552000000
C    -0.744000000    -4.493000000     1.970000000
H    -0.972000000    -4.845000000     0.967000000
C    -1.224000000    -3.118000000     3.894000000
H    -1.774000000    -2.274000000     4.303000000
O    -3.067000000    -3.412000000     0.806000000
H    -1.827000000    -1.735000000     1.424000000
C    -4.614000000    -0.339000000     1.354000000
C    -5.203000000    -1.455000000     0.490000000
H    -6.201000000    -1.153000000     0.164000000
H    -5.395000000    -2.385000000     1.028000000
C    -4.276000000    -1.860000000    -0.613000000
C    -4.359000000    -1.324000000    -1.927000000
H    -5.053000000    -0.504000000    -2.094000000
C    -3.340000000    -2.894000000    -0.419000000
C    -2.539000000    -3.329000000    -1.475000000
H    -1.781000000    -4.101000000    -1.368000000
C    -2.535000000    -2.629000000    -2.692000000
O    -1.611000000    -3.044000000    -3.642000000
C    -0.371000000    -2.360000000    -3.772000000
C     0.887000000    -3.262000000    -3.779000000
C     0.915000000    -4.514000000    -3.120000000
H    -0.019000000    -4.911000000    -2.730000000
C     2.052000000    -2.666000000    -4.223000000
H     1.962000000    -1.704000000    -4.721000000
O    -0.447000000    -1.360000000    -4.822000000
H    -0.365000000    -1.754000000    -2.853000000
C    -3.491000000    -1.684000000    -2.967000000
C    -3.536000000    -0.931000000    -4.328000000
H    -4.527000000    -0.486000000    -4.438000000
H    -3.505000000    -1.680000000    -5.121000000
C    -2.354000000     0.072000000    -4.299000000
C    -1.020000000    -0.133000000    -4.615000000
C    -0.187000000     0.946000000    -4.526000000
H     0.885000000     0.831000000    -4.663000000
C    -0.618000000     2.262000000    -4.186000000
O     0.349000000     3.239000000    -3.989000000
C     0.806000000     3.396000000    -2.602000000
H     0.488000000     2.501000000    -2.047000000
C     2.304000000     3.473000000    -2.552000000
C     2.909000000     4.417000000    -1.650000000
H     2.236000000     5.204000000    -1.319000000
C     3.180000000     2.617000000    -3.271000000
H     2.789000000     1.894000000    -3.982000000
C     4.603000000     2.683000000    -3.107000000
O     5.485000000     1.919000000    -3.873000000
C     5.114000000     3.591000000    -2.185000000
H     6.189000000     3.701000000    -2.068000000
C     4.266000000     4.483000000    -1.464000000
O     4.875000000     5.307000000    -0.482000000
C     4.314000000     5.497000000     0.739000000
C     3.924000000     4.369000000     1.465000000
H     4.069000000     3.365000000     1.075000000
C     4.305000000     6.750000000     1.367000000
H     4.715000000     7.583000000     0.802000000
C     3.999000000     6.922000000     2.700000000
H     4.111000000     7.865000000     3.228000000
C     3.532000000     5.797000000     3.390000000
H     3.274000000     5.991000000     4.428000000
C     3.539000000     4.549000000     2.800000000
O     3.281000000     3.418000000     3.534000000
C     2.046000000     3.092000000     4.121000000
C     2.019000000     2.574000000     5.425000000
H     2.915000000     2.580000000     6.040000000
C     0.769000000     2.186000000     5.880000000
O     0.743000000     1.349000000     7.000000000
C     0.005000000     0.149000000     7.009000000
C     0.405000000    -0.944000000     6.316000000
H     1.182000000    -0.919000000     5.557000000
C    -1.004000000     0.093000000     7.982000000
H    -1.238000000     0.973000000     8.576000000
C    -1.699000000    -1.120000000     8.156000000
H    -2.467000000    -1.117000000     8.925000000
C    -1.388000000    -2.221000000     7.414000000
H    -1.951000000    -3.147000000     7.499000000
C    -0.303000000    -2.176000000     6.521000000
O     0.146000000    -3.335000000     5.876000000
C    -0.120000000    -3.665000000     4.579000000
C     0.598000000    -4.695000000     3.972000000
H     1.362000000    -5.302000000     4.450000000
C     0.272000000    -5.161000000     2.731000000
O     1.023000000    -6.113000000     2.111000000
C     0.716000000    -6.594000000     0.857000000
C     1.600000000    -6.394000000    -0.149000000
H     2.493000000    -5.777000000    -0.097000000
C    -0.383000000    -7.403000000     0.635000000
H    -1.118000000    -7.507000000     1.429000000
C    -0.654000000    -7.984000000    -0.587000000
H    -1.499000000    -8.660000000    -0.685000000
C     0.228000000    -7.732000000    -1.644000000
H     0.107000000    -8.329000000    -2.545000000
C     1.328000000    -6.948000000    -1.411000000
O     2.180000000    -6.430000000    -2.415000000
C     2.103000000    -5.125000000    -2.971000000
C     3.305000000    -4.682000000    -3.524000000
H     4.210000000    -5.258000000    -3.348000000
C     3.264000000    -3.397000000    -4.121000000
O     4.450000000    -2.862000000    -4.531000000
C     4.562000000    -1.549000000    -5.008000000
C     4.098000000    -1.286000000    -6.281000000
H     3.909000000    -2.088000000    -6.990000000
C     4.160000000     0.048000000    -6.798000000
H     3.794000000     0.179000000    -7.814000000
C     4.609000000     1.087000000    -5.989000000
H     4.470000000     2.114000000    -6.318000000
C     5.126000000     0.841000000    -4.713000000
C     4.995000000    -0.466000000    -4.250000000
H     5.265000000    -0.704000000    -3.224000000
C     2.204000000    -1.587000000    -0.370000000
H     2.947000000    -2.364000000    -0.208000000
C     0.876000000    -1.910000000    -0.269000000
H     0.501000000    -2.928000000    -0.201000000
C    -0.139000000    -0.923000000    -0.344000000
H    -1.214000000    -1.110000000    -0.387000000
C     0.267000000     0.425000000    -0.510000000
H    -0.471000000     1.197000000    -0.714000000
C     1.658000000     0.695000000    -0.459000000
H     1.943000000     1.744000000    -0.469000000
C     2.632000000    -0.269000000    -0.459000000
C     4.115000000     0.069000000    -0.473000000
O     4.531000000     1.114000000     0.092000000
O     4.880000000    -0.711000000    -0.952000000
O     4.132000000    -0.383000000     5.840000000
H     4.055000000    -1.026000000     5.135000000
H     3.938000000    -0.876000000     6.637000000
O     9.279000000     1.413000000    -0.754000000
H     8.701000000     0.685000000    -0.980000000
H     8.736000000     1.994000000    -0.221000000
O     5.039000000     1.555000000     2.634000000
H     4.742000000     1.217000000     1.789000000
H     4.292000000     2.048000000     2.971000000
O     7.192000000    -1.214000000     0.914000000
H     6.471000000    -0.801000000     0.437000000
H     7.877000000    -1.332000000     0.256000000
O     9.551000000     4.198000000    -2.260000000
H     9.382000000     3.605000000    -2.992000000
H     8.922000000     3.935000000    -1.588000000
O     6.595000000    -3.129000000     2.785000000
H     6.970000000    -2.275000000     2.571000000
H     6.441000000    -3.542000000     1.935000000
O     7.485000000     0.589000000     3.241000000
H     7.500000000     0.721000000     2.293000000
H     6.555000000     0.531000000     3.459000000
O     5.361000000    -5.784000000     0.872000000
H     5.214000000    -6.535000000     0.297000000
H     5.518000000    -5.053000000     0.274000000
O     5.742000000    -3.426000000    -1.403000000
H     5.542000000    -2.496000000    -1.297000000
H     5.598000000    -3.598000000    -2.333000000
O     8.945000000    -0.311000000    -4.583000000
H     8.425000000    -1.045000000    -4.909000000
H     9.782000000    -0.701000000    -4.335000000
O     6.872000000     2.295000000     0.342000000
H     6.008000000     1.982000000     0.074000000
H     6.708000000     2.795000000     1.142000000
O     1.666000000    -2.013000000     2.561000000
H     0.782000000    -2.090000000     2.204000000
H     1.737000000    -1.098000000     2.832000000
O     9.368000000    -1.119000000     4.043000000
H     8.740000000    -1.385000000     4.715000000
H     8.827000000    -0.854000000     3.300000000
O     4.477000000     6.062000000    -4.211000000
H     4.155000000     5.743000000    -5.054000000
H     4.598000000     5.271000000    -3.686000000
O     9.448000000     2.012000000    -3.536000000
H     9.391000000     1.256000000    -4.122000000
H     9.630000000     1.634000000    -2.676000000
O     7.575000000     5.902000000    -0.729000000
H     6.753000000     5.588000000    -0.353000000
H     7.337000000     6.210000000    -1.604000000
O     3.914000000    -2.688000000     3.869000000
H     4.559000000    -3.123000000     3.311000000
H     3.144000000    -2.583000000     3.309000000
O     7.345000000    -0.302000000    -1.651000000
H     7.303000000     0.153000000    -2.492000000
H     6.445000000    -0.288000000    -1.326000000
O     8.439000000    -4.812000000    -1.040000000
H     9.235000000    -4.307000000    -1.208000000
H     7.726000000    -4.226000000    -1.293000000
