215
-1458.87610
C    -0.692000000     1.288000000     5.512000000
H    -1.526000000     0.605000000     5.654000000
C    -0.682000000     2.066000000     4.350000000
C     0.471000000     2.827000000     4.021000000
H     0.532000000     3.455000000     3.136000000
C    -1.786000000     2.098000000     3.361000000
O    -2.923000000     1.454000000     3.934000000
H    -1.459000000     1.386000000     2.588000000
O    -2.046000000     3.446000000     2.870000000
C    -2.281000000     3.580000000     1.517000000
C    -1.235000000     4.066000000     0.719000000
H    -0.241000000     4.369000000     1.037000000
C    -1.382000000     4.187000000    -0.643000000
O    -0.336000000     4.633000000    -1.425000000
C    -2.543000000     3.827000000    -1.290000000
C    -2.718000000     3.915000000    -2.835000000
H    -3.740000000     4.208000000    -3.084000000
C    -2.264000000     2.643000000    -3.596000000
C    -3.166000000     1.590000000    -3.758000000
H    -4.172000000     1.553000000    -3.349000000
H    -2.202000000     4.796000000    -3.223000000
C    -3.614000000     3.353000000    -0.494000000
H    -4.567000000     3.188000000    -0.990000000
C    -3.445000000     3.161000000     0.915000000
C    -4.581000000     2.443000000     1.707000000
H    -5.499000000     2.543000000     1.124000000
H    -4.787000000     2.961000000     2.645000000
C    -4.377000000     1.010000000     1.995000000
C    -4.994000000     0.093000000     1.154000000
H    -5.587000000     0.410000000     0.300000000
C    -3.587000000     0.548000000     3.044000000
C    -3.407000000    -0.796000000     3.259000000
H    -2.785000000    -1.193000000     4.057000000
C    -3.967000000    -1.667000000     2.355000000
O    -3.472000000    -2.883000000     2.314000000
C    -2.406000000    -3.204000000     1.356000000
C    -1.213000000    -3.898000000     2.039000000
C    -0.360000000    -4.744000000     1.352000000
H    -0.519000000    -4.923000000     0.291000000
C    -0.846000000    -3.514000000     3.371000000
H    -1.439000000    -2.738000000     3.848000000
O    -2.941000000    -3.938000000     0.242000000
H    -1.909000000    -2.280000000     1.026000000
C    -4.767000000    -1.228000000     1.288000000
C    -5.300000000    -2.212000000     0.206000000
H    -6.255000000    -1.879000000    -0.205000000
H    -5.441000000    -3.207000000     0.634000000
C    -4.339000000    -2.430000000    -0.986000000
C    -4.509000000    -1.647000000    -2.136000000
H    -5.290000000    -0.892000000    -2.140000000
C    -3.279000000    -3.304000000    -0.884000000
C    -2.385000000    -3.426000000    -1.845000000
H    -1.523000000    -4.083000000    -1.760000000
C    -2.521000000    -2.730000000    -3.026000000
O    -1.441000000    -2.853000000    -3.931000000
C    -0.407000000    -1.807000000    -4.020000000
C     0.971000000    -2.266000000    -4.312000000
C     1.527000000    -3.502000000    -3.826000000
H     0.897000000    -4.147000000    -3.219000000
C     1.818000000    -1.527000000    -5.168000000
H     1.420000000    -0.654000000    -5.680000000
O    -0.775000000    -0.840000000    -5.086000000
H    -0.406000000    -1.328000000    -3.029000000
C    -3.547000000    -1.781000000    -3.161000000
C    -3.580000000    -0.841000000    -4.374000000
H    -4.571000000    -0.418000000    -4.551000000
H    -3.519000000    -1.408000000    -5.306000000
C    -2.657000000     0.384000000    -4.235000000
C    -1.325000000     0.312000000    -4.726000000
C    -0.460000000     1.361000000    -4.514000000
H     0.601000000     1.223000000    -4.708000000
C    -0.913000000     2.480000000    -3.788000000
O    -0.038000000     3.478000000    -3.414000000
C     0.408000000     3.586000000    -2.015000000
H     0.198000000     2.648000000    -1.481000000
C     1.937000000     3.809000000    -1.901000000
C     2.385000000     4.585000000    -0.815000000
H     1.723000000     5.236000000    -0.250000000
C     2.881000000     2.935000000    -2.556000000
H     2.579000000     2.216000000    -3.313000000
C     4.256000000     3.097000000    -2.293000000
O     5.126000000     2.251000000    -2.923000000
C     4.736000000     3.992000000    -1.325000000
H     5.797000000     4.108000000    -1.117000000
C     3.783000000     4.747000000    -0.617000000
O     4.265000000     5.478000000     0.444000000
C     3.687000000     5.498000000     1.698000000
C     3.471000000     4.351000000     2.492000000
H     3.673000000     3.329000000     2.181000000
C     3.389000000     6.755000000     2.204000000
H     3.536000000     7.686000000     1.662000000
C     2.817000000     6.841000000     3.477000000
H     2.741000000     7.856000000     3.860000000
C     2.428000000     5.711000000     4.229000000
H     2.064000000     5.732000000     5.253000000
C     2.844000000     4.500000000     3.704000000
O     2.791000000     3.411000000     4.552000000
C     1.572000000     2.762000000     4.911000000
C     1.535000000     2.057000000     6.108000000
H     2.442000000     1.923000000     6.691000000
C     0.382000000     1.309000000     6.449000000
O     0.480000000     0.386000000     7.503000000
C     0.104000000    -0.941000000     7.362000000
C     0.495000000    -1.719000000     6.266000000
H     1.092000000    -1.257000000     5.484000000
C    -0.656000000    -1.543000000     8.372000000
H    -0.866000000    -1.037000000     9.311000000
C    -0.930000000    -2.883000000     8.359000000
H    -1.410000000    -3.346000000     9.218000000
C    -0.454000000    -3.655000000     7.279000000
H    -0.425000000    -4.733000000     7.415000000
C     0.138000000    -3.051000000     6.186000000
O     0.716000000    -3.875000000     5.268000000
C     0.219000000    -4.185000000     4.029000000
C     0.993000000    -5.119000000     3.320000000
H     1.847000000    -5.542000000     3.843000000
C     0.775000000    -5.328000000     1.973000000
O     1.704000000    -6.112000000     1.298000000
C     1.795000000    -6.297000000    -0.067000000
C     2.690000000    -5.557000000    -0.870000000
H     3.356000000    -4.811000000    -0.444000000
C     0.925000000    -7.200000000    -0.671000000
H     0.262000000    -7.748000000    -0.007000000
C     0.917000000    -7.331000000    -2.064000000
H     0.171000000    -8.017000000    -2.457000000
C     1.745000000    -6.604000000    -2.857000000
H     1.801000000    -6.776000000    -3.929000000
C     2.679000000    -5.781000000    -2.257000000
O     3.376000000    -4.843000000    -3.102000000
C     2.855000000    -3.840000000    -3.904000000
C     3.648000000    -3.114000000    -4.858000000
H     4.608000000    -3.489000000    -5.204000000
C     3.116000000    -1.966000000    -5.418000000
O     3.985000000    -1.223000000    -6.252000000
C     4.387000000     0.068000000    -5.883000000
C     4.602000000     0.952000000    -6.970000000
H     4.567000000     0.769000000    -8.041000000
C     4.943000000     2.229000000    -6.652000000
H     5.095000000     2.926000000    -7.473000000
C     4.996000000     2.667000000    -5.284000000
H     5.166000000     3.717000000    -5.058000000
C     4.860000000     1.799000000    -4.243000000
C     4.545000000     0.488000000    -4.555000000
H     4.345000000    -0.258000000    -3.790000000
C     2.173000000    -1.421000000    -0.071000000
H     2.891000000    -2.237000000    -0.059000000
C     0.917000000    -1.651000000    -0.499000000
H     0.705000000    -2.629000000    -0.924000000
C    -0.087000000    -0.640000000    -0.433000000
H    -1.085000000    -0.878000000    -0.741000000
C     0.246000000     0.561000000     0.132000000
H    -0.511000000     1.301000000     0.378000000
C     1.534000000     0.807000000     0.552000000
H     1.832000000     1.726000000     1.049000000
C     2.483000000    -0.178000000     0.499000000
C     3.914000000     0.144000000     0.974000000
O     4.202000000     1.063000000     1.705000000
O     4.710000000    -0.681000000     0.676000000
O     8.983000000     3.343000000     4.732000000
H     9.286000000     3.753000000     3.923000000
H     8.029000000     3.346000000     4.660000000
O     5.434000000    -3.176000000     6.497000000
H     6.089000000    -2.685000000     6.993000000
H     5.863000000    -3.373000000     5.664000000
O     4.325000000     1.114000000     8.105000000
H     3.941000000     0.500000000     7.478000000
H     5.265000000     1.082000000     7.927000000
O     6.448000000     2.674000000     1.641000000
H     7.097000000     2.355000000     1.013000000
H     5.642000000     2.214000000     1.407000000
O     5.029000000     1.169000000     4.232000000
H     5.441000000     2.029000000     4.145000000
H     4.544000000     1.052000000     3.415000000
O     3.816000000    -0.706000000     5.909000000
H     4.318000000    -1.513000000     6.026000000
H     4.251000000    -0.256000000     5.185000000
O     7.617000000     5.414000000     0.972000000
H     6.952000000     4.725000000     0.948000000
H     7.337000000     6.040000000     0.304000000
O     5.233000000    -3.377000000     1.060000000
H     5.087000000    -2.434000000     1.141000000
H     5.322000000    -3.525000000     0.119000000
O     5.490000000    -3.790000000    -1.461000000
H     6.306000000    -4.094000000    -1.857000000
H     4.819000000    -3.982000000    -2.117000000
O     6.199000000    -5.366000000     2.670000000
H     5.554000000    -6.066000000     2.564000000
H     5.821000000    -4.620000000     2.204000000
O     8.494000000    -2.521000000    -1.421000000
H     8.416000000    -3.336000000    -1.917000000
H     7.797000000    -1.963000000    -1.767000000
O     6.287000000    -1.204000000    -1.873000000
H     6.014000000    -2.065000000    -1.555000000
H     5.877000000    -0.585000000    -1.269000000
O     7.634000000     0.167000000    -3.872000000
H     7.006000000     0.322000000    -4.578000000
H     7.161000000    -0.383000000    -3.248000000
O     6.364000000     3.663000000     3.992000000
H     6.261000000     4.601000000     3.834000000
H     6.415000000     3.277000000     3.118000000
O     6.472000000    -0.829000000     2.517000000
H     6.226000000    -0.088000000     3.071000000
H     5.870000000    -0.782000000     1.774000000
O     7.719000000     3.185000000    -3.105000000
H     8.441000000     2.736000000    -2.666000000
H     6.962000000     2.616000000    -2.964000000
O     8.457000000     1.754000000     0.183000000
H     8.883000000     0.985000000     0.562000000
H     8.925000000     1.906000000    -0.638000000
O     6.914000000    -3.219000000     4.324000000
H     6.617000000    -3.962000000     3.798000000
H     6.706000000    -2.451000000     3.793000000
O     8.802000000    -0.984000000     0.939000000
H     7.993000000    -1.024000000     1.448000000
H     8.621000000    -1.510000000     0.160000000
