215
-1476.64614
C     1.050000000     1.989000000     4.603000000
H     0.399000000     1.213000000     4.996000000
C     0.542000000     2.977000000     3.707000000
C     1.454000000     4.023000000     3.381000000
H     1.136000000     4.782000000     2.671000000
C    -0.814000000     2.896000000     3.042000000
O    -1.854000000     2.324000000     4.017000000
H    -0.740000000     2.101000000     2.286000000
O    -1.309000000     4.124000000     2.507000000
C    -1.859000000     4.026000000     1.234000000
C    -0.995000000     4.290000000     0.184000000
H     0.005000000     4.700000000     0.302000000
C    -1.489000000     4.090000000    -1.137000000
O    -0.530000000     4.324000000    -2.106000000
C    -2.790000000     3.658000000    -1.359000000
C    -3.158000000     3.378000000    -2.826000000
H    -4.191000000     3.526000000    -3.150000000
C    -2.698000000     1.972000000    -3.209000000
C    -3.654000000     0.900000000    -3.260000000
H    -4.721000000     1.017000000    -3.084000000
H    -2.600000000     4.118000000    -3.404000000
C    -3.635000000     3.484000000    -0.280000000
H    -4.624000000     3.057000000    -0.425000000
C    -3.163000000     3.610000000     1.014000000
C    -4.030000000     3.176000000     2.227000000
H    -5.098000000     3.294000000     2.030000000
H    -3.798000000     3.821000000     3.077000000
C    -3.663000000     1.739000000     2.558000000
C    -4.402000000     0.713000000     1.978000000
H    -5.157000000     0.959000000     1.237000000
C    -2.684000000     1.377000000     3.506000000
C    -2.398000000     0.028000000     3.825000000
H    -1.612000000    -0.194000000     4.542000000
C    -3.176000000    -0.977000000     3.248000000
O    -2.765000000    -2.253000000     3.458000000
C    -2.067000000    -2.873000000     2.379000000
C    -0.846000000    -3.590000000     2.891000000
C    -0.189000000    -4.610000000     2.162000000
H    -0.540000000    -4.873000000     1.167000000
C    -0.269000000    -3.164000000     4.102000000
H    -0.589000000    -2.288000000     4.659000000
O    -2.916000000    -3.769000000     1.653000000
H    -1.642000000    -2.155000000     1.662000000
C    -4.131000000    -0.612000000     2.304000000
C    -4.936000000    -1.628000000     1.554000000
H    -5.853000000    -1.088000000     1.309000000
H    -5.231000000    -2.473000000     2.180000000
C    -4.196000000    -2.148000000     0.355000000
C    -4.529000000    -1.641000000    -0.896000000
H    -5.199000000    -0.815000000    -1.121000000
C    -3.348000000    -3.225000000     0.464000000
C    -2.723000000    -3.695000000    -0.642000000
H    -1.939000000    -4.432000000    -0.489000000
C    -2.965000000    -3.148000000    -1.927000000
O    -2.158000000    -3.568000000    -2.916000000
C    -1.095000000    -2.572000000    -3.314000000
C     0.266000000    -3.217000000    -3.685000000
C     0.491000000    -4.583000000    -3.321000000
H    -0.327000000    -5.223000000    -3.000000000
C     1.299000000    -2.448000000    -4.133000000
H     1.179000000    -1.397000000    -4.386000000
O    -1.605000000    -1.875000000    -4.429000000
H    -0.854000000    -1.957000000    -2.435000000
C    -3.944000000    -2.132000000    -2.086000000
C    -4.253000000    -1.573000000    -3.509000000
H    -5.290000000    -1.236000000    -3.571000000
H    -4.035000000    -2.374000000    -4.219000000
C    -3.352000000    -0.347000000    -3.745000000
C    -2.023000000    -0.593000000    -4.149000000
C    -1.089000000     0.443000000    -4.154000000
H    -0.090000000     0.352000000    -4.571000000
C    -1.429000000     1.698000000    -3.708000000
O    -0.523000000     2.688000000    -3.770000000
C     0.114000000     3.173000000    -2.595000000
H     0.007000000     2.369000000    -1.851000000
C     1.667000000     3.283000000    -2.757000000
C     2.389000000     4.071000000    -1.844000000
H     1.871000000     4.485000000    -0.983000000
C     2.381000000     2.797000000    -3.891000000
H     1.896000000     2.083000000    -4.552000000
C     3.776000000     3.020000000    -4.032000000
O     4.430000000     2.386000000    -5.059000000
C     4.381000000     3.928000000    -3.185000000
H     5.433000000     4.166000000    -3.314000000
C     3.704000000     4.437000000    -2.078000000
O     4.396000000     5.255000000    -1.206000000
C     3.937000000     5.774000000    -0.038000000
C     4.074000000     5.170000000     1.224000000
H     4.622000000     4.232000000     1.265000000
C     3.256000000     6.976000000    -0.017000000
H     3.165000000     7.514000000    -0.957000000
C     2.822000000     7.643000000     1.175000000
H     2.332000000     8.601000000     1.025000000
C     2.945000000     6.960000000     2.380000000
H     2.579000000     7.429000000     3.290000000
C     3.484000000     5.672000000     2.384000000
O     3.602000000     5.011000000     3.610000000
C     2.699000000     4.030000000     3.968000000
C     2.999000000     3.189000000     5.011000000
H     4.000000000     3.344000000     5.405000000
C     2.245000000     2.113000000     5.235000000
O     2.576000000     1.184000000     6.251000000
C     1.822000000     0.094000000     6.692000000
C     1.996000000    -1.180000000     6.132000000
H     2.840000000    -1.323000000     5.462000000
C     0.762000000     0.367000000     7.541000000
H     0.787000000     1.346000000     8.013000000
C    -0.152000000    -0.697000000     7.800000000
H    -1.010000000    -0.448000000     8.420000000
C     0.063000000    -2.000000000     7.315000000
H    -0.715000000    -2.736000000     7.499000000
C     1.151000000    -2.240000000     6.468000000
O     1.257000000    -3.481000000     5.884000000
C     0.872000000    -3.768000000     4.660000000
C     1.463000000    -4.771000000     3.917000000
H     2.404000000    -5.208000000     4.241000000
C     1.052000000    -5.111000000     2.597000000
O     1.683000000    -6.024000000     1.801000000
C     1.225000000    -6.633000000     0.646000000
C     1.745000000    -6.143000000    -0.574000000
H     2.382000000    -5.266000000    -0.483000000
C     0.368000000    -7.659000000     0.645000000
H     0.066000000    -8.058000000     1.610000000
C     0.046000000    -8.284000000    -0.543000000
H    -0.625000000    -9.138000000    -0.575000000
C     0.658000000    -7.943000000    -1.753000000
H     0.262000000    -8.376000000    -2.668000000
C     1.509000000    -6.893000000    -1.778000000
O     1.973000000    -6.456000000    -3.055000000
C     1.798000000    -5.114000000    -3.450000000
C     2.823000000    -4.381000000    -4.089000000
H     3.844000000    -4.749000000    -4.154000000
C     2.560000000    -3.040000000    -4.424000000
O     3.639000000    -2.261000000    -4.882000000
C     3.454000000    -1.054000000    -5.585000000
C     2.937000000    -1.040000000    -6.888000000
H     2.629000000    -1.970000000    -7.358000000
C     2.851000000     0.180000000    -7.545000000
H     2.395000000     0.206000000    -8.531000000
C     3.421000000     1.313000000    -6.923000000
H     3.516000000     2.231000000    -7.498000000
C     3.967000000     1.216000000    -5.679000000
C     4.040000000     0.060000000    -4.957000000
H     4.406000000    -0.033000000    -3.938000000
C     2.278000000    -1.919000000    -0.613000000
H     3.067000000    -2.624000000    -0.862000000
C     0.903000000    -2.245000000    -0.467000000
H     0.593000000    -3.286000000    -0.518000000
C     0.037000000    -1.230000000    -0.269000000
H    -0.978000000    -1.434000000    -0.199000000
C     0.444000000     0.068000000    -0.196000000
H    -0.248000000     0.882000000     0.006000000
C     1.854000000     0.340000000    -0.288000000
H     2.365000000     1.257000000    -0.007000000
C     2.792000000    -0.665000000    -0.453000000
C     4.326000000    -0.378000000    -0.364000000
O     4.791000000     0.615000000     0.099000000
O     5.064000000    -1.179000000    -0.864000000
O     9.142000000    -0.746000000     1.706000000
H     8.263000000    -0.610000000     2.059000000
H     9.003000000    -1.249000000     0.903000000
O     7.682000000    -1.990000000     4.399000000
H     8.008000000    -1.119000000     4.627000000
H     7.326000000    -1.888000000     3.516000000
O     7.617000000     0.106000000    -3.153000000
H     8.525000000    -0.183000000    -3.237000000
H     7.249000000    -0.456000000    -2.471000000
O     5.154000000    -2.172000000     5.850000000
H     6.073000000    -1.955000000     5.697000000
H     4.822000000    -2.429000000     4.990000000
O     8.477000000     3.637000000     1.651000000
H     7.842000000     3.122000000     1.154000000
H     7.945000000     4.247000000     2.162000000
O     3.811000000     1.551000000     2.260000000
H     4.096000000     1.245000000     1.399000000
H     4.582000000     1.981000000     2.629000000
O     6.424000000    -0.422000000     2.309000000
H     5.931000000    -0.205000000     1.518000000
H     5.871000000    -0.115000000     3.028000000
O     7.671000000     2.720000000    -2.196000000
H     8.402000000     2.529000000    -1.608000000
H     7.518000000     1.897000000    -2.662000000
O     6.048000000     2.665000000     3.296000000
H     6.720000000     2.587000000     2.618000000
H     6.122000000     3.568000000     3.604000000
O     5.425000000    -3.230000000     0.763000000
H     5.370000000    -2.510000000     0.134000000
H     6.207000000    -3.717000000     0.502000000
O     7.138000000    -5.195000000    -2.867000000
H     6.649000000    -4.388000000    -3.026000000
H     7.807000000    -5.209000000    -3.551000000
O     5.757000000    -2.784000000    -2.792000000
H     5.452000000    -2.098000000    -2.199000000
H     5.258000000    -2.645000000    -3.597000000
O     6.426000000     2.717000000     0.263000000
H     5.800000000     1.993000000     0.226000000
H     6.805000000     2.752000000    -0.615000000
O     2.474000000    -1.066000000     2.527000000
H     1.967000000    -1.171000000     1.722000000
H     2.667000000    -0.130000000     2.568000000
O     7.145000000     1.008000000    -5.830000000
H     7.274000000     0.533000000    -5.009000000
H     6.403000000     1.588000000    -5.657000000
O     9.635000000     1.441000000    -0.755000000
H     8.937000000     0.787000000    -0.736000000
H    10.146000000     1.269000000     0.035000000
O     4.641000000    -2.721000000     3.331000000
H     4.929000000    -2.926000000     2.442000000
H     3.794000000    -2.290000000     3.215000000
O     7.717000000    -1.120000000    -0.596000000
H     6.777000000    -1.117000000    -0.414000000
H     7.920000000    -2.035000000    -0.793000000
O     8.087000000    -3.941000000    -0.155000000
H     9.021000000    -3.836000000     0.028000000
H     8.053000000    -4.568000000    -0.878000000
