215
-1418.53648
C    -0.044000000     2.090000000     5.049000000
H    -0.868000000     1.413000000     5.257000000
C    -0.214000000     2.817000000     3.849000000
C     0.797000000     3.698000000     3.443000000
H     0.712000000     4.302000000     2.543000000
C    -1.514000000     2.723000000     2.916000000
O    -2.735000000     2.103000000     3.533000000
H    -1.279000000     2.184000000     1.986000000
O    -1.963000000     3.990000000     2.413000000
C    -2.375000000     4.135000000     1.076000000
C    -1.433000000     4.516000000     0.178000000
H    -0.555000000     5.007000000     0.590000000
C    -1.628000000     4.353000000    -1.229000000
O    -0.518000000     4.673000000    -2.002000000
C    -2.734000000     3.804000000    -1.721000000
C    -2.952000000     3.496000000    -3.228000000
H    -4.026000000     3.316000000    -3.309000000
C    -2.298000000     2.147000000    -3.656000000
C    -3.059000000     1.020000000    -3.768000000
H    -4.118000000     1.174000000    -3.578000000
H    -2.686000000     4.381000000    -3.808000000
C    -3.740000000     3.348000000    -0.795000000
H    -4.618000000     2.828000000    -1.168000000
C    -3.556000000     3.505000000     0.589000000
C    -4.553000000     2.854000000     1.524000000
H    -5.530000000     2.840000000     1.037000000
H    -4.628000000     3.527000000     2.381000000
C    -4.275000000     1.409000000     1.808000000
C    -4.944000000     0.426000000     1.099000000
H    -5.684000000     0.705000000     0.353000000
C    -3.309000000     1.040000000     2.770000000
C    -3.153000000    -0.278000000     3.132000000
H    -2.539000000    -0.531000000     3.993000000
C    -3.786000000    -1.273000000     2.367000000
O    -3.423000000    -2.561000000     2.590000000
C    -2.435000000    -3.128000000     1.738000000
C    -1.243000000    -3.786000000     2.455000000
C    -0.768000000    -4.941000000     2.024000000
H    -1.212000000    -5.394000000     1.141000000
C    -0.504000000    -3.187000000     3.493000000
H    -0.836000000    -2.221000000     3.864000000
O    -3.179000000    -3.986000000     0.835000000
H    -1.958000000    -2.295000000     1.201000000
C    -4.639000000    -0.916000000     1.272000000
C    -5.232000000    -2.031000000     0.484000000
H    -6.242000000    -1.742000000     0.184000000
H    -5.446000000    -2.774000000     1.255000000
C    -4.321000000    -2.539000000    -0.663000000
C    -4.296000000    -1.970000000    -1.913000000
H    -4.999000000    -1.154000000    -2.057000000
C    -3.262000000    -3.465000000    -0.399000000
C    -2.309000000    -3.796000000    -1.435000000
H    -1.398000000    -4.368000000    -1.274000000
C    -2.345000000    -3.152000000    -2.613000000
O    -1.289000000    -3.381000000    -3.515000000
C    -0.241000000    -2.412000000    -3.582000000
C     1.133000000    -3.142000000    -3.747000000
C     1.277000000    -4.467000000    -3.261000000
H     0.386000000    -5.014000000    -2.965000000
C     2.271000000    -2.490000000    -4.221000000
H     2.138000000    -1.540000000    -4.733000000
O    -0.511000000    -1.535000000    -4.695000000
H    -0.212000000    -1.836000000    -2.645000000
C    -3.375000000    -2.236000000    -2.870000000
C    -3.382000000    -1.473000000    -4.263000000
H    -4.438000000    -1.294000000    -4.478000000
H    -3.108000000    -2.022000000    -5.166000000
C    -2.521000000    -0.218000000    -4.199000000
C    -1.087000000    -0.289000000    -4.370000000
C    -0.343000000     0.854000000    -4.247000000
H     0.700000000     0.753000000    -4.535000000
C    -0.919000000     1.999000000    -3.845000000
O    -0.126000000     3.071000000    -3.670000000
C     0.306000000     3.530000000    -2.297000000
H     0.058000000     2.750000000    -1.562000000
C     1.806000000     3.780000000    -2.279000000
C     2.234000000     4.991000000    -1.734000000
H     1.462000000     5.660000000    -1.363000000
C     2.751000000     2.802000000    -2.588000000
H     2.383000000     1.812000000    -2.844000000
C     4.123000000     3.085000000    -2.427000000
O     4.967000000     1.994000000    -2.657000000
C     4.572000000     4.344000000    -1.868000000
H     5.618000000     4.510000000    -1.621000000
C     3.584000000     5.297000000    -1.440000000
O     3.894000000     6.382000000    -0.616000000
C     3.367000000     6.420000000     0.665000000
C     3.283000000     5.342000000     1.544000000
H     3.565000000     4.340000000     1.234000000
C     3.035000000     7.668000000     1.185000000
H     3.168000000     8.518000000     0.521000000
C     2.552000000     7.950000000     2.498000000
H     2.147000000     8.924000000     2.763000000
C     2.544000000     6.850000000     3.341000000
H     2.284000000     6.943000000     4.392000000
C     2.847000000     5.553000000     2.843000000
O     3.064000000     4.540000000     3.737000000
C     2.013000000     3.755000000     4.167000000
C     2.251000000     2.969000000     5.275000000
H     3.232000000     2.926000000     5.739000000
C     1.298000000     2.065000000     5.624000000
O     1.557000000     1.253000000     6.707000000
C     1.026000000    -0.008000000     6.839000000
C     1.402000000    -0.978000000     5.947000000
H     2.242000000    -0.854000000     5.268000000
C     0.011000000    -0.293000000     7.701000000
H    -0.295000000     0.551000000     8.314000000
C    -0.630000000    -1.523000000     7.792000000
H    -1.311000000    -1.688000000     8.623000000
C    -0.187000000    -2.534000000     6.954000000
H    -0.484000000    -3.564000000     7.137000000
C     0.810000000    -2.237000000     5.979000000
O     1.282000000    -3.169000000     5.113000000
C     0.600000000    -3.760000000     4.102000000
C     1.082000000    -4.915000000     3.576000000
H     1.957000000    -5.419000000     3.976000000
C     0.439000000    -5.481000000     2.451000000
O     0.934000000    -6.595000000     1.907000000
C     0.875000000    -6.913000000     0.547000000
C     1.844000000    -6.287000000    -0.285000000
H     2.637000000    -5.720000000     0.197000000
C    -0.004000000    -7.888000000     0.151000000
H    -0.720000000    -8.343000000     0.830000000
C    -0.049000000    -8.206000000    -1.253000000
H    -0.747000000    -8.845000000    -1.788000000
C     0.832000000    -7.567000000    -2.077000000
H     0.965000000    -7.893000000    -3.106000000
C     1.778000000    -6.670000000    -1.599000000
O     2.677000000    -6.255000000    -2.480000000
C     2.530000000    -5.054000000    -3.272000000
C     3.608000000    -4.397000000    -3.788000000
H     4.613000000    -4.796000000    -3.676000000
C     3.516000000    -3.151000000    -4.339000000
O     4.664000000    -2.412000000    -4.610000000
C     4.689000000    -1.041000000    -4.716000000
C     4.418000000    -0.500000000    -5.982000000
H     4.279000000    -1.105000000    -6.874000000
C     4.288000000     0.862000000    -6.092000000
H     4.148000000     1.355000000    -7.051000000
C     4.497000000     1.664000000    -5.009000000
H     4.444000000     2.745000000    -5.119000000
C     4.863000000     1.153000000    -3.768000000
C     4.959000000    -0.193000000    -3.615000000
H     5.120000000    -0.670000000    -2.651000000
C     2.617000000    -0.855000000    -0.581000000
H     3.520000000    -1.342000000    -0.940000000
C     1.395000000    -1.397000000    -0.833000000
H     1.394000000    -2.322000000    -1.403000000
C     0.251000000    -0.762000000    -0.378000000
H    -0.720000000    -1.271000000    -0.461000000
C     0.353000000     0.390000000     0.377000000
H    -0.568000000     0.816000000     0.765000000
C     1.598000000     0.907000000     0.690000000
H     1.670000000     1.801000000     1.304000000
C     2.750000000     0.303000000     0.205000000
C     4.152000000     0.868000000     0.549000000
O     4.280000000     1.547000000     1.499000000
O     5.193000000     0.392000000     0.100000000
O     8.067000000     1.462000000     4.557000000
H     7.347000000     2.081000000     4.680000000
H     7.762000000     0.873000000     3.867000000
O     6.292000000     3.280000000     1.846000000
H     5.578000000     2.661000000     1.693000000
H     6.960000000     3.037000000     1.205000000
O     4.978000000    -3.776000000     2.745000000
H     5.566000000    -4.531000000     2.725000000
H     5.381000000    -3.143000000     2.150000000
O     9.166000000     3.901000000    -1.260000000
H     8.354000000     3.394000000    -1.270000000
H     9.857000000     3.248000000    -1.371000000
O     4.887000000    -2.835000000     5.268000000
H     5.534000000    -3.535000000     5.357000000
H     4.405000000    -3.055000000     4.471000000
O     6.572000000     5.890000000     0.298000000
H     5.696000000     6.146000000     0.587000000
H     6.724000000     5.042000000     0.715000000
O     6.086000000     3.471000000     4.562000000
H     6.261000000     3.491000000     3.621000000
H     5.189000000     3.144000000     4.632000000
O     5.706000000    -2.048000000     0.608000000
H     5.643000000    -1.118000000     0.387000000
H     5.913000000    -2.478000000    -0.222000000
O     5.024000000    -0.072000000     5.436000000
H     4.785000000    -0.071000000     4.509000000
H     4.963000000    -0.991000000     5.698000000
O     6.647000000    -3.075000000    -1.810000000
H     6.163000000    -3.738000000    -2.301000000
H     7.470000000    -2.975000000    -2.289000000
O     8.663000000    -2.617000000     4.550000000
H     8.596000000    -2.438000000     3.612000000
H     8.093000000    -3.372000000     4.692000000
O    11.182000000     2.729000000     2.364000000
H    10.319000000     2.584000000     1.976000000
H    11.008000000     3.248000000     3.149000000
O     7.076000000     2.258000000    -0.812000000
H     6.790000000     2.451000000    -1.705000000
H     6.443000000     1.615000000    -0.491000000
O     7.628000000    -1.155000000     6.621000000
H     6.799000000    -0.978000000     6.176000000
H     8.150000000    -1.630000000     5.974000000
O     4.033000000    -0.562000000     3.137000000
H     4.181000000    -1.211000000     2.449000000
H     4.049000000     0.279000000     2.682000000
O     7.293000000     0.120000000     2.433000000
H     7.517000000    -0.811000000     2.433000000
H     6.416000000     0.155000000     2.050000000
O     7.851000000     3.266000000    -3.714000000
H     8.801000000     3.362000000    -3.659000000
H     7.697000000     2.329000000    -3.594000000
O     8.153000000    -2.508000000     1.762000000
H     8.887000000    -2.868000000     1.263000000
H     7.440000000    -2.443000000     1.127000000
O     9.111000000     1.870000000     1.075000000
H     8.646000000     1.178000000     1.545000000
H     8.538000000     2.087000000     0.340000000
