215
-1455.45520
C     0.163000000     1.725000000     4.820000000
H    -0.693000000     1.074000000     4.977000000
C     0.081000000     2.622000000     3.679000000
C     1.251000000     3.273000000     3.329000000
H     1.241000000     3.810000000     2.385000000
C    -1.212000000     2.636000000     2.850000000
O    -2.423000000     2.342000000     3.655000000
H    -0.958000000     1.950000000     2.028000000
O    -1.416000000     4.028000000     2.252000000
C    -1.688000000     4.026000000     0.892000000
C    -0.662000000     4.318000000     0.021000000
H     0.306000000     4.700000000     0.336000000
C    -0.897000000     4.200000000    -1.391000000
O     0.126000000     4.420000000    -2.324000000
C    -2.171000000     3.908000000    -1.841000000
C    -2.380000000     3.776000000    -3.307000000
H    -3.409000000     3.904000000    -3.649000000
C    -1.879000000     2.382000000    -3.810000000
C    -2.820000000     1.370000000    -3.781000000
H    -3.793000000     1.591000000    -3.350000000
H    -1.837000000     4.576000000    -3.814000000
C    -3.293000000     3.764000000    -0.924000000
H    -4.311000000     3.535000000    -1.228000000
C    -3.017000000     3.764000000     0.487000000
C    -4.118000000     3.535000000     1.443000000
H    -5.110000000     3.667000000     1.006000000
H    -3.998000000     4.152000000     2.336000000
C    -4.092000000     2.032000000     1.820000000
C    -4.785000000     1.117000000     1.040000000
H    -5.473000000     1.463000000     0.273000000
C    -3.309000000     1.586000000     2.911000000
C    -3.329000000     0.248000000     3.214000000
H    -2.735000000    -0.171000000     4.022000000
C    -4.090000000    -0.689000000     2.515000000
O    -3.879000000    -2.035000000     2.760000000
C    -2.806000000    -2.596000000     1.945000000
C    -1.807000000    -3.428000000     2.839000000
C    -1.128000000    -4.438000000     2.241000000
H    -1.356000000    -4.648000000     1.199000000
C    -1.566000000    -3.105000000     4.159000000
H    -2.091000000    -2.310000000     4.681000000
O    -3.491000000    -3.402000000     0.883000000
H    -2.257000000    -1.756000000     1.496000000
C    -4.722000000    -0.254000000     1.334000000
C    -5.417000000    -1.216000000     0.389000000
H    -6.234000000    -0.702000000    -0.122000000
H    -5.894000000    -1.979000000     1.006000000
C    -4.490000000    -1.861000000    -0.643000000
C    -4.538000000    -1.296000000    -1.953000000
H    -5.250000000    -0.520000000    -2.222000000
C    -3.580000000    -2.876000000    -0.363000000
C    -2.682000000    -3.305000000    -1.349000000
H    -1.916000000    -4.003000000    -1.020000000
C    -2.732000000    -2.750000000    -2.594000000
O    -1.763000000    -3.206000000    -3.441000000
C    -0.683000000    -2.295000000    -3.689000000
C     0.606000000    -3.059000000    -3.711000000
C     0.782000000    -4.210000000    -2.941000000
H    -0.133000000    -4.588000000    -2.490000000
C     1.830000000    -2.479000000    -4.220000000
H     1.888000000    -1.462000000    -4.599000000
O    -0.903000000    -1.495000000    -4.886000000
H    -0.581000000    -1.643000000    -2.809000000
C    -3.655000000    -1.738000000    -2.944000000
C    -3.633000000    -0.962000000    -4.258000000
H    -4.577000000    -0.449000000    -4.451000000
H    -3.561000000    -1.580000000    -5.155000000
C    -2.519000000     0.063000000    -4.197000000
C    -1.279000000    -0.159000000    -4.708000000
C    -0.292000000     0.846000000    -4.678000000
H     0.701000000     0.583000000    -5.031000000
C    -0.586000000     2.093000000    -4.238000000
O     0.499000000     2.882000000    -3.995000000
C     0.869000000     3.247000000    -2.662000000
H     0.506000000     2.409000000    -2.049000000
C     2.355000000     3.397000000    -2.611000000
C     2.904000000     4.179000000    -1.639000000
H     2.323000000     4.805000000    -0.967000000
C     3.192000000     2.661000000    -3.450000000
H     2.755000000     2.044000000    -4.230000000
C     4.595000000     2.659000000    -3.221000000
O     5.451000000     1.899000000    -3.957000000
C     5.094000000     3.573000000    -2.268000000
H     6.175000000     3.631000000    -2.357000000
C     4.267000000     4.366000000    -1.484000000
O     4.802000000     5.335000000    -0.658000000
C     4.336000000     5.517000000     0.644000000
C     4.125000000     4.424000000     1.434000000
H     4.230000000     3.419000000     1.034000000
C     4.191000000     6.847000000     1.057000000
H     4.475000000     7.677000000     0.416000000
C     3.784000000     7.114000000     2.354000000
H     3.718000000     8.169000000     2.606000000
C     3.582000000     6.015000000     3.191000000
H     3.220000000     6.273000000     4.183000000
C     3.723000000     4.672000000     2.729000000
O     3.619000000     3.600000000     3.617000000
C     2.477000000     3.085000000     3.980000000
C     2.503000000     2.231000000     5.091000000
H     3.521000000     2.097000000     5.448000000
C     1.374000000     1.595000000     5.533000000
O     1.519000000     0.763000000     6.635000000
C     0.668000000    -0.184000000     7.051000000
C     0.618000000    -1.379000000     6.380000000
H     1.188000000    -1.550000000     5.471000000
C    -0.165000000     0.083000000     8.168000000
H    -0.048000000     1.037000000     8.676000000
C    -1.106000000    -0.834000000     8.532000000
H    -1.756000000    -0.664000000     9.387000000
C    -1.237000000    -1.978000000     7.838000000
H    -1.980000000    -2.746000000     8.043000000
C    -0.327000000    -2.270000000     6.782000000
O    -0.344000000    -3.494000000     6.170000000
C    -0.521000000    -3.743000000     4.805000000
C     0.086000000    -4.878000000     4.272000000
H     0.743000000    -5.512000000     4.862000000
C    -0.218000000    -5.184000000     2.941000000
O     0.324000000    -6.315000000     2.333000000
C     0.310000000    -6.601000000     0.999000000
C     1.252000000    -6.001000000     0.132000000
H     1.923000000    -5.179000000     0.365000000
C    -0.485000000    -7.709000000     0.676000000
H    -0.992000000    -8.204000000     1.501000000
C    -0.427000000    -8.234000000    -0.634000000
H    -0.978000000    -9.113000000    -0.957000000
C     0.483000000    -7.655000000    -1.506000000
H     0.505000000    -8.169000000    -2.464000000
C     1.268000000    -6.568000000    -1.152000000
O     2.076000000    -6.102000000    -2.106000000
C     1.985000000    -4.916000000    -2.822000000
C     3.118000000    -4.378000000    -3.458000000
H     4.096000000    -4.819000000    -3.282000000
C     3.038000000    -3.172000000    -4.123000000
O     4.272000000    -2.627000000    -4.354000000
C     4.471000000    -1.470000000    -4.938000000
C     4.143000000    -1.324000000    -6.333000000
H     3.677000000    -2.144000000    -6.872000000
C     4.236000000    -0.036000000    -6.940000000
H     4.051000000     0.198000000    -7.985000000
C     4.788000000     1.003000000    -6.145000000
H     5.020000000     1.947000000    -6.632000000
C     5.062000000     0.835000000    -4.786000000
C     4.916000000    -0.395000000    -4.255000000
H     5.063000000    -0.556000000    -3.190000000
C     2.787000000    -1.900000000    -0.428000000
H     3.546000000    -2.673000000    -0.516000000
C     1.435000000    -2.259000000    -0.261000000
H     1.043000000    -3.270000000    -0.328000000
C     0.501000000    -1.283000000    -0.038000000
H    -0.530000000    -1.677000000     0.086000000
C     0.868000000     0.008000000     0.039000000
H     0.141000000     0.815000000     0.086000000
C     2.200000000     0.352000000    -0.149000000
H     2.438000000     1.411000000    -0.207000000
C     3.209000000    -0.603000000    -0.352000000
C     4.690000000    -0.216000000    -0.367000000
O     4.977000000     0.921000000    -0.004000000
O     5.575000000    -1.069000000    -0.322000000
O     5.520000000    -0.860000000     5.435000000
H     6.088000000    -0.330000000     4.876000000
H     4.864000000    -1.219000000     4.838000000
O     9.633000000    -3.459000000    -3.767000000
H    10.181000000    -4.239000000    -3.679000000
H     9.559000000    -3.116000000    -2.876000000
O    10.958000000     2.287000000     0.184000000
H    10.034000000     2.313000000     0.434000000
H    10.948000000     2.334000000    -0.772000000
O     4.811000000     0.883000000     2.731000000
H     3.918000000     1.212000000     2.629000000
H     5.044000000     0.551000000     1.864000000
O     7.451000000    -0.676000000     1.347000000
H     6.738000000    -0.973000000     0.782000000
H     8.177000000    -0.504000000     0.747000000
O     5.185000000    -3.004000000     1.573000000
H     5.448000000    -2.443000000     0.844000000
H     4.906000000    -3.821000000     1.158000000
O     7.430000000     0.581000000     3.804000000
H     7.767000000    -0.001000000     3.123000000
H     6.606000000     0.913000000     3.449000000
O     4.390000000    -5.662000000     0.419000000
H     4.806000000    -5.884000000    -0.414000000
H     4.290000000    -6.501000000     0.868000000
O    10.604000000    -3.029000000     1.758000000
H    10.991000000    -2.393000000     2.360000000
H     9.659000000    -2.921000000     1.871000000
O     6.536000000    -2.705000000    -2.231000000
H     6.192000000    -2.260000000    -1.456000000
H     5.760000000    -2.918000000    -2.749000000
O     8.745000000    -0.444000000    -3.187000000
H     7.948000000    -0.353000000    -3.709000000
H     8.778000000    -1.373000000    -2.960000000
O     7.511000000     2.899000000     0.329000000
H     7.170000000     3.177000000     1.180000000
H     6.865000000     2.270000000     0.006000000
O     1.532000000    -1.893000000     2.925000000
H     0.671000000    -2.311000000     2.908000000
H     1.762000000    -1.779000000     2.003000000
O     8.015000000    -3.017000000     2.785000000
H     7.507000000    -3.816000000     2.642000000
H     7.469000000    -2.319000000     2.424000000
O    10.192000000     1.754000000    -2.446000000
H    10.044000000     0.979000000    -2.988000000
H     9.579000000     2.406000000    -2.787000000
O     8.162000000     5.219000000    -1.167000000
H     8.037000000     4.285000000    -0.996000000
H     7.473000000     5.441000000    -1.794000000
O     4.012000000    -2.393000000     3.622000000
H     4.364000000    -2.554000000     2.747000000
H     3.067000000    -2.319000000     3.491000000
O     9.339000000    -0.469000000    -0.550000000
H     9.113000000    -0.002000000    -1.354000000
H    10.296000000    -0.479000000    -0.540000000
O     9.023000000    -3.100000000    -1.178000000
H     9.055000000    -2.217000000    -0.809000000
H     8.150000000    -3.166000000    -1.566000000
