215
-1455.04183
C     0.307000000     0.154000000     5.273000000
H    -0.383000000    -0.623000000     4.956000000
C     0.130000000     1.381000000     4.690000000
C     1.196000000     2.346000000     4.818000000
H     1.040000000     3.331000000     4.388000000
C    -1.112000000     1.719000000     3.851000000
O    -2.264000000     1.017000000     4.268000000
H    -0.875000000     1.282000000     2.870000000
O    -1.325000000     3.170000000     3.632000000
C    -1.662000000     3.574000000     2.400000000
C    -0.617000000     4.124000000     1.678000000
H     0.326000000     4.324000000     2.181000000
C    -0.920000000     4.435000000     0.358000000
O     0.247000000     4.719000000    -0.338000000
C    -2.165000000     4.288000000    -0.219000000
C    -2.345000000     4.643000000    -1.668000000
H    -3.337000000     5.013000000    -1.936000000
C    -2.063000000     3.382000000    -2.464000000
C    -3.084000000     2.502000000    -2.788000000
H    -4.132000000     2.687000000    -2.565000000
H    -1.639000000     5.405000000    -2.003000000
C    -3.264000000     3.849000000     0.608000000
H    -4.281000000     3.732000000     0.244000000
C    -3.004000000     3.426000000     1.912000000
C    -4.013000000     2.723000000     2.720000000
H    -5.035000000     2.898000000     2.376000000
H    -4.024000000     3.144000000     3.727000000
C    -3.938000000     1.174000000     2.598000000
C    -4.590000000     0.572000000     1.573000000
H    -5.116000000     1.223000000     0.880000000
C    -3.113000000     0.376000000     3.402000000
C    -3.111000000    -0.994000000     3.246000000
H    -2.664000000    -1.640000000     3.997000000
C    -3.896000000    -1.628000000     2.294000000
O    -3.619000000    -2.916000000     1.961000000
C    -2.716000000    -3.157000000     0.885000000
C    -1.614000000    -4.082000000     1.334000000
C    -0.687000000    -4.617000000     0.460000000
H    -0.776000000    -4.290000000    -0.573000000
C    -1.358000000    -4.294000000     2.715000000
H    -2.057000000    -3.918000000     3.458000000
O    -3.583000000    -3.739000000    -0.176000000
H    -2.318000000    -2.188000000     0.548000000
C    -4.585000000    -0.828000000     1.387000000
C    -5.428000000    -1.427000000     0.259000000
H    -6.282000000    -0.772000000     0.071000000
H    -5.939000000    -2.348000000     0.547000000
C    -4.634000000    -1.678000000    -1.038000000
C    -4.733000000    -0.736000000    -2.049000000
H    -5.348000000     0.139000000    -1.854000000
C    -3.839000000    -2.849000000    -1.223000000
C    -3.083000000    -2.989000000    -2.408000000
H    -2.377000000    -3.804000000    -2.544000000
C    -3.115000000    -1.966000000    -3.353000000
O    -2.074000000    -1.932000000    -4.275000000
C    -0.930000000    -1.127000000    -4.082000000
C     0.376000000    -1.767000000    -4.616000000
C     0.555000000    -3.146000000    -4.564000000
H    -0.204000000    -3.809000000    -4.156000000
C     1.432000000    -0.954000000    -5.131000000
H     1.370000000     0.128000000    -5.213000000
O    -1.162000000     0.064000000    -4.881000000
H    -0.752000000    -0.878000000    -3.025000000
C    -3.888000000    -0.764000000    -3.134000000
C    -3.881000000     0.472000000    -4.078000000
H    -4.938000000     0.744000000    -4.115000000
H    -3.632000000     0.030000000    -5.045000000
C    -2.813000000     1.470000000    -3.705000000
C    -1.557000000     1.200000000    -4.129000000
C    -0.465000000     1.945000000    -3.687000000
H     0.531000000     1.616000000    -3.974000000
C    -0.758000000     3.092000000    -2.938000000
O     0.329000000     3.843000000    -2.542000000
C     0.847000000     3.711000000    -1.168000000
H     0.499000000     2.742000000    -0.779000000
C     2.359000000     3.732000000    -1.206000000
C     3.076000000     3.790000000     0.027000000
H     2.503000000     3.884000000     0.946000000
C     3.026000000     3.489000000    -2.424000000
H     2.511000000     3.536000000    -3.381000000
C     4.423000000     3.483000000    -2.407000000
O     5.161000000     3.357000000    -3.545000000
C     5.133000000     3.533000000    -1.156000000
H     6.212000000     3.398000000    -1.159000000
C     4.443000000     3.583000000     0.075000000
O     5.106000000     3.623000000     1.305000000
C     4.535000000     4.143000000     2.460000000
C     4.088000000     3.282000000     3.477000000
H     4.115000000     2.223000000     3.233000000
C     4.291000000     5.480000000     2.563000000
H     4.639000000     6.140000000     1.772000000
C     3.758000000     6.042000000     3.710000000
H     3.661000000     7.124000000     3.736000000
C     3.463000000     5.173000000     4.771000000
H     2.985000000     5.460000000     5.704000000
C     3.566000000     3.826000000     4.688000000
O     3.302000000     2.979000000     5.797000000
C     2.303000000     2.060000000     5.677000000
C     2.335000000     0.829000000     6.306000000
H     3.218000000     0.661000000     6.918000000
C     1.407000000    -0.147000000     6.087000000
O     1.718000000    -1.464000000     6.430000000
C     0.817000000    -2.491000000     6.565000000
C     0.829000000    -3.442000000     5.583000000
H     1.683000000    -3.402000000     4.912000000
C    -0.310000000    -2.354000000     7.350000000
H    -0.277000000    -1.582000000     8.115000000
C    -1.366000000    -3.283000000     7.224000000
H    -2.258000000    -3.155000000     7.831000000
C    -1.231000000    -4.261000000     6.289000000
H    -2.080000000    -4.874000000     5.998000000
C    -0.141000000    -4.359000000     5.445000000
O    -0.044000000    -5.365000000     4.474000000
C    -0.274000000    -5.084000000     3.135000000
C     0.678000000    -5.543000000     2.232000000
H     1.480000000    -6.219000000     2.517000000
C     0.436000000    -5.332000000     0.898000000
O     1.345000000    -5.804000000     0.058000000
C     1.045000000    -6.071000000    -1.237000000
C     1.746000000    -5.366000000    -2.235000000
H     2.401000000    -4.534000000    -1.988000000
C     0.211000000    -7.119000000    -1.542000000
H    -0.225000000    -7.610000000    -0.675000000
C     0.067000000    -7.558000000    -2.848000000
H    -0.596000000    -8.382000000    -3.097000000
C     0.631000000    -6.801000000    -3.909000000
H     0.411000000    -7.036000000    -4.948000000
C     1.423000000    -5.720000000    -3.583000000
O     2.037000000    -5.109000000    -4.623000000
C     1.808000000    -3.745000000    -4.922000000
C     2.832000000    -2.907000000    -5.394000000
H     3.722000000    -3.448000000    -5.705000000
C     2.690000000    -1.508000000    -5.480000000
O     3.770000000    -0.682000000    -5.780000000
C     3.932000000     0.667000000    -5.772000000
C     3.829000000     1.300000000    -7.025000000
H     3.563000000     0.820000000    -7.964000000
C     4.246000000     2.652000000    -7.087000000
H     4.399000000     3.060000000    -8.083000000
C     4.733000000     3.303000000    -5.970000000
H     5.082000000     4.329000000    -6.052000000
C     4.754000000     2.669000000    -4.749000000
C     4.305000000     1.375000000    -4.680000000
H     4.422000000     0.776000000    -3.781000000
C     1.747000000    -2.423000000     0.820000000
H     1.972000000    -3.157000000     1.590000000
C     0.562000000    -1.753000000     0.903000000
H    -0.044000000    -1.954000000     1.783000000
C     0.191000000    -0.805000000    -0.098000000
H    -0.754000000    -0.288000000    -0.102000000
C     1.046000000    -0.677000000    -1.159000000
H     0.796000000     0.082000000    -1.895000000
C     2.248000000    -1.401000000    -1.259000000
H     2.920000000    -1.201000000    -2.090000000
C     2.643000000    -2.270000000    -0.251000000
C     3.968000000    -3.077000000    -0.201000000
O     4.418000000    -3.326000000    -1.312000000
O     4.492000000    -3.481000000     0.809000000
O     5.859000000    -5.914000000     3.652000000
H     5.232000000    -6.290000000     3.034000000
H     5.686000000    -4.973000000     3.626000000
O     8.886000000    -3.996000000     0.159000000
H     8.391000000    -3.230000000     0.447000000
H     8.241000000    -4.704000000     0.136000000
O     6.911000000    -1.929000000     0.897000000
H     6.138000000    -2.491000000     0.833000000
H     6.898000000    -1.606000000     1.798000000
O     8.050000000    -5.727000000    -2.490000000
H     7.907000000    -4.816000000    -2.745000000
H     7.473000000    -5.859000000    -1.738000000
O     6.817000000    -6.074000000     0.241000000
H     5.930000000    -5.745000000     0.388000000
H     6.760000000    -7.010000000     0.434000000
O     7.624000000    -2.448000000     3.712000000
H     7.845000000    -3.340000000     3.445000000
H     7.135000000    -2.556000000     4.528000000
O     5.011000000    -5.119000000    -3.071000000
H     5.007000000    -4.371000000    -2.473000000
H     4.181000000    -5.565000000    -2.903000000
O     6.437000000    -1.685000000    -5.823000000
H     5.500000000    -1.573000000    -5.664000000
H     6.852000000    -1.001000000    -5.299000000
O     2.680000000     1.109000000     1.284000000
H     3.546000000     0.927000000     0.919000000
H     2.092000000     0.522000000     0.809000000
O     6.437000000    -5.694000000    -5.484000000
H     5.920000000    -5.150000000    -6.078000000
H     6.162000000    -5.420000000    -4.609000000
O     7.692000000     0.628000000     0.576000000
H     7.232000000     1.159000000     1.226000000
H     7.357000000    -0.258000000     0.709000000
O     4.818000000    -3.311000000     3.382000000
H     5.499000000    -2.644000000     3.469000000
H     4.608000000    -3.318000000     2.448000000
O     7.046000000     0.436000000    -3.612000000
H     7.602000000     1.087000000    -3.183000000
H     6.716000000    -0.106000000    -2.896000000
O     4.299000000    -6.336000000     1.304000000
H     4.080000000    -5.434000000     1.071000000
H     3.496000000    -6.829000000     1.133000000
O     4.637000000    -3.933000000     6.047000000
H     4.268000000    -4.798000000     5.873000000
H     4.519000000    -3.453000000     5.227000000
O     5.551000000    -0.342000000     2.984000000
H     5.742000000     0.159000000     3.776000000
H     4.673000000    -0.695000000     3.129000000
O     8.610000000    -4.947000000     3.220000000
H     8.888000000    -5.019000000     2.307000000
H     8.314000000    -5.828000000     3.450000000
O     8.236000000    -3.072000000    -2.706000000
H     8.946000000    -2.595000000    -2.278000000
H     7.477000000    -2.493000000    -2.629000000
O     6.294000000    -1.396000000    -1.728000000
H     5.599000000    -2.037000000    -1.578000000
H     6.727000000    -1.309000000    -0.879000000
