215
-1429.68277
C     0.889000000     1.799000000     5.052000000
H     0.008000000     1.191000000     5.244000000
C     0.914000000     2.840000000     4.118000000
C     2.075000000     3.529000000     3.919000000
H     2.171000000     4.326000000     3.186000000
C    -0.320000000     3.081000000     3.255000000
O    -1.523000000     2.865000000     4.000000000
H    -0.264000000     2.391000000     2.400000000
O    -0.346000000     4.361000000     2.714000000
C    -0.578000000     4.522000000     1.365000000
C     0.371000000     4.528000000     0.403000000
H     1.420000000     4.469000000     0.679000000
C     0.030000000     4.492000000    -0.984000000
O     1.035000000     4.228000000    -1.832000000
C    -1.291000000     4.376000000    -1.438000000
C    -1.648000000     4.203000000    -2.924000000
H    -2.663000000     4.605000000    -2.915000000
C    -1.726000000     2.772000000    -3.495000000
C    -2.853000000     2.006000000    -3.540000000
H    -3.827000000     2.358000000    -3.210000000
H    -1.174000000     4.960000000    -3.552000000
C    -2.283000000     4.326000000    -0.413000000
H    -3.359000000     4.253000000    -0.552000000
C    -1.923000000     4.406000000     0.930000000
C    -2.989000000     4.354000000     2.003000000
H    -3.945000000     4.723000000     1.626000000
H    -2.611000000     4.933000000     2.848000000
C    -3.270000000     2.909000000     2.326000000
C    -4.132000000     2.160000000     1.550000000
H    -4.569000000     2.639000000     0.678000000
C    -2.593000000     2.287000000     3.406000000
C    -2.822000000     0.951000000     3.632000000
H    -2.247000000     0.446000000     4.404000000
C    -3.732000000     0.199000000     2.914000000
O    -3.801000000    -1.137000000     3.074000000
C    -3.140000000    -1.936000000     2.097000000
C    -2.118000000    -2.968000000     2.611000000
C    -1.494000000    -3.771000000     1.688000000
H    -1.775000000    -3.750000000     0.639000000
C    -1.604000000    -2.808000000     3.920000000
H    -2.223000000    -2.150000000     4.525000000
O    -4.084000000    -2.483000000     1.195000000
H    -2.565000000    -1.367000000     1.352000000
C    -4.402000000     0.815000000     1.816000000
C    -5.417000000     0.133000000     0.970000000
H    -6.144000000     0.862000000     0.603000000
H    -5.919000000    -0.660000000     1.528000000
C    -4.752000000    -0.593000000    -0.141000000
C    -4.709000000    -0.010000000    -1.413000000
H    -5.118000000     0.993000000    -1.505000000
C    -4.241000000    -1.813000000    -0.034000000
C    -3.728000000    -2.608000000    -1.068000000
H    -3.372000000    -3.627000000    -0.941000000
C    -3.715000000    -2.049000000    -2.309000000
O    -3.088000000    -2.694000000    -3.395000000
C    -1.708000000    -2.205000000    -3.689000000
C    -0.692000000    -3.239000000    -4.033000000
C    -0.843000000    -4.547000000    -3.517000000
H    -1.624000000    -4.749000000    -2.789000000
C     0.428000000    -2.907000000    -4.775000000
H     0.663000000    -1.868000000    -4.989000000
O    -1.701000000    -1.160000000    -4.768000000
H    -1.359000000    -1.772000000    -2.740000000
C    -4.251000000    -0.738000000    -2.525000000
C    -4.197000000    -0.087000000    -3.889000000
H    -5.069000000     0.570000000    -3.907000000
H    -4.336000000    -0.778000000    -4.723000000
C    -2.921000000     0.727000000    -4.002000000
C    -1.729000000     0.151000000    -4.483000000
C    -0.514000000     0.850000000    -4.448000000
H     0.450000000     0.450000000    -4.750000000
C    -0.524000000     2.108000000    -3.852000000
O     0.659000000     2.817000000    -3.722000000
C     1.252000000     2.879000000    -2.460000000
H     0.701000000     2.129000000    -1.875000000
C     2.677000000     2.462000000    -2.433000000
C     3.430000000     2.597000000    -1.299000000
H     3.089000000     3.120000000    -0.409000000
C     3.272000000     1.918000000    -3.574000000
H     2.677000000     1.830000000    -4.480000000
C     4.558000000     1.359000000    -3.488000000
O     5.114000000     0.713000000    -4.563000000
C     5.334000000     1.462000000    -2.327000000
H     6.309000000     0.983000000    -2.283000000
C     4.716000000     2.037000000    -1.209000000
O     5.456000000     2.256000000    -0.084000000
C     5.452000000     3.298000000     0.806000000
C     4.948000000     3.045000000     2.116000000
H     4.628000000     2.042000000     2.387000000
C     5.757000000     4.624000000     0.432000000
H     6.121000000     4.735000000    -0.586000000
C     5.431000000     5.684000000     1.304000000
H     5.668000000     6.727000000     1.110000000
C     5.071000000     5.319000000     2.602000000
H     4.994000000     6.193000000     3.242000000
C     4.815000000     4.095000000     3.007000000
O     4.439000000     3.868000000     4.316000000
C     3.270000000     3.175000000     4.600000000
C     3.232000000     2.192000000     5.580000000
H     4.096000000     2.036000000     6.221000000
C     2.011000000     1.571000000     5.858000000
O     1.963000000     0.664000000     6.887000000
C     0.958000000    -0.281000000     7.089000000
C     1.022000000    -1.435000000     6.317000000
H     1.780000000    -1.603000000     5.556000000
C    -0.062000000    -0.113000000     8.048000000
H    -0.102000000     0.776000000     8.672000000
C    -1.150000000    -0.991000000     8.074000000
H    -2.040000000    -0.848000000     8.682000000
C    -1.112000000    -2.080000000     7.194000000
H    -1.915000000    -2.813000000     7.175000000
C    -0.013000000    -2.326000000     6.371000000
O    -0.059000000    -3.462000000     5.605000000
C    -0.495000000    -3.490000000     4.286000000
C     0.187000000    -4.226000000     3.365000000
H     1.103000000    -4.619000000     3.798000000
C    -0.312000000    -4.427000000     2.109000000
O     0.490000000    -5.070000000     1.192000000
C     0.143000000    -6.090000000     0.355000000
C     0.506000000    -6.029000000    -0.948000000
H     1.041000000    -5.168000000    -1.341000000
C    -0.547000000    -7.175000000     0.890000000
H    -0.810000000    -7.169000000     1.945000000
C    -0.889000000    -8.189000000    -0.001000000
H    -1.568000000    -8.979000000     0.311000000
C    -0.745000000    -8.031000000    -1.389000000
H    -1.268000000    -8.677000000    -2.089000000
C    -0.033000000    -6.963000000    -1.872000000
O     0.064000000    -6.685000000    -3.247000000
C     0.173000000    -5.502000000    -3.773000000
C     1.330000000    -5.152000000    -4.355000000
H     2.200000000    -5.797000000    -4.445000000
C     1.454000000    -3.840000000    -4.856000000
O     2.733000000    -3.417000000    -5.358000000
C     3.061000000    -2.094000000    -5.728000000
C     2.569000000    -1.629000000    -7.013000000
H     1.785000000    -2.172000000    -7.534000000
C     3.056000000    -0.366000000    -7.439000000
H     2.612000000    -0.050000000    -8.380000000
C     3.944000000     0.390000000    -6.673000000
H     4.140000000     1.420000000    -6.960000000
C     4.334000000    -0.044000000    -5.414000000
C     4.022000000    -1.337000000    -5.024000000
H     4.399000000    -1.688000000    -4.067000000
C     1.098000000    -1.251000000     1.688000000
H     1.545000000    -1.660000000     2.590000000
C     0.045000000    -0.312000000     1.789000000
H    -0.195000000    -0.013000000     2.806000000
C    -0.558000000     0.168000000     0.632000000
H    -1.413000000     0.778000000     0.677000000
C    -0.188000000    -0.340000000    -0.596000000
H    -0.645000000    -0.039000000    -1.535000000
C     0.822000000    -1.328000000    -0.664000000
H     1.150000000    -1.620000000    -1.659000000
C     1.544000000    -1.732000000     0.459000000
C     2.783000000    -2.640000000     0.262000000
O     3.129000000    -2.901000000    -0.866000000
O     3.593000000    -2.815000000     1.149000000
O     3.184000000    -3.235000000     4.561000000
H     3.992000000    -2.726000000     4.627000000
H     3.238000000    -3.661000000     3.705000000
O     5.917000000    -1.704000000     2.411000000
H     6.363000000    -1.274000000     1.681000000
H     5.017000000    -1.818000000     2.107000000
O     5.383000000    -1.507000000     5.003000000
H     5.637000000    -0.648000000     5.341000000
H     5.618000000    -1.479000000     4.075000000
O     3.831000000    -8.491000000     1.465000000
H     4.715000000    -8.831000000     1.602000000
H     3.944000000    -7.772000000     0.843000000
O     8.419000000    -6.297000000    -0.131000000
H     7.697000000    -5.802000000     0.257000000
H     8.941000000    -5.638000000    -0.590000000
O     3.571000000    -5.314000000     2.356000000
H     3.876000000    -5.969000000     1.729000000
H     3.452000000    -4.520000000     1.835000000
O     3.864000000    -4.779000000    -2.755000000
H     3.508000000    -4.079000000    -2.207000000
H     4.037000000    -4.358000000    -3.597000000
O     8.284000000    -3.173000000     0.815000000
H     8.219000000    -2.218000000     0.821000000
H     9.088000000    -3.355000000     0.329000000
O     7.188000000    -3.787000000    -2.860000000
H     6.619000000    -3.221000000    -2.337000000
H     8.048000000    -3.708000000    -2.448000000
O     7.627000000    -0.544000000     0.608000000
H     8.368000000    -0.439000000     0.012000000
H     7.625000000     0.258000000     1.131000000
O     5.840000000    -4.098000000     0.553000000
H     6.607000000    -3.538000000     0.672000000
H     5.096000000    -3.532000000     0.758000000
O     6.120000000    -4.930000000    -5.007000000
H     6.524000000    -4.537000000    -4.233000000
H     5.742000000    -5.751000000    -4.689000000
O     4.516000000    -6.365000000    -0.110000000
H     5.016000000    -5.565000000     0.054000000
H     4.530000000    -6.466000000    -1.062000000
O     5.814000000    -4.792000000     5.150000000
H     5.373000000    -5.579000000     5.471000000
H     6.224000000    -4.414000000     5.928000000
O     3.372000000    -7.539000000    -2.610000000
H     3.243000000    -6.596000000    -2.711000000
H     4.036000000    -7.761000000    -3.262000000
O     2.650000000    -4.136000000     7.271000000
H     2.486000000    -3.799000000     6.390000000
H     2.648000000    -5.088000000     7.167000000
O     8.111000000    -3.296000000     3.974000000
H     7.888000000    -3.292000000     3.043000000
H     7.371000000    -3.733000000     4.395000000
O     5.243000000    -1.892000000    -1.755000000
H     4.462000000    -2.329000000    -1.416000000
H     5.169000000    -0.991000000    -1.440000000
O     6.628000000    -5.470000000     2.727000000
H     6.120000000    -5.233000000     1.951000000
H     6.180000000    -5.030000000     3.450000000
