215
-1460.61046
C     0.971000000     2.144000000     5.209000000
H    -0.019000000     1.829000000     5.527000000
C     1.133000000     2.832000000     3.978000000
C     2.409000000     3.280000000     3.625000000
H     2.562000000     3.756000000     2.660000000
C    -0.043000000     3.128000000     3.086000000
O    -1.292000000     2.957000000     3.807000000
H     0.065000000     2.537000000     2.164000000
O    -0.029000000     4.561000000     2.642000000
C    -0.394000000     4.802000000     1.361000000
C     0.624000000     4.689000000     0.388000000
H     1.641000000     4.654000000     0.770000000
C     0.334000000     4.468000000    -0.933000000
O     1.348000000     4.172000000    -1.755000000
C    -1.053000000     4.570000000    -1.316000000
C    -1.418000000     4.563000000    -2.784000000
H    -2.311000000     5.165000000    -2.958000000
C    -1.550000000     3.148000000    -3.336000000
C    -2.770000000     2.490000000    -3.253000000
H    -3.621000000     3.045000000    -2.867000000
H    -0.701000000     5.102000000    -3.407000000
C    -2.015000000     4.686000000    -0.361000000
H    -3.066000000     4.542000000    -0.598000000
C    -1.740000000     4.789000000     1.024000000
C    -2.936000000     4.473000000     2.012000000
H    -3.828000000     4.964000000     1.619000000
H    -2.652000000     4.963000000     2.945000000
C    -3.190000000     3.034000000     2.366000000
C    -4.161000000     2.280000000     1.621000000
H    -4.804000000     2.791000000     0.908000000
C    -2.358000000     2.343000000     3.227000000
C    -2.506000000     0.958000000     3.450000000
H    -1.905000000     0.346000000     4.118000000
C    -3.510000000     0.315000000     2.770000000
O    -3.535000000    -1.033000000     2.909000000
C    -2.900000000    -1.877000000     1.924000000
C    -1.920000000    -2.872000000     2.607000000
C    -1.383000000    -3.945000000     1.859000000
H    -1.767000000    -4.202000000     0.875000000
C    -1.314000000    -2.531000000     3.838000000
H    -1.795000000    -1.718000000     4.375000000
O    -3.937000000    -2.480000000     1.146000000
H    -2.335000000    -1.176000000     1.293000000
C    -4.363000000     0.943000000     1.909000000
C    -5.436000000     0.172000000     1.115000000
H    -6.233000000     0.862000000     0.828000000
H    -5.874000000    -0.546000000     1.812000000
C    -4.854000000    -0.601000000    -0.105000000
C    -4.952000000     0.131000000    -1.318000000
H    -5.409000000     1.117000000    -1.313000000
C    -4.167000000    -1.820000000     0.017000000
C    -3.682000000    -2.357000000    -1.170000000
H    -3.177000000    -3.319000000    -1.136000000
C    -3.877000000    -1.700000000    -2.376000000
O    -3.164000000    -2.272000000    -3.431000000
C    -1.804000000    -1.801000000    -3.605000000
C    -0.917000000    -2.965000000    -3.914000000
C    -1.147000000    -4.251000000    -3.389000000
H    -2.127000000    -4.367000000    -2.935000000
C     0.273000000    -2.778000000    -4.558000000
H     0.455000000    -1.810000000    -5.018000000
O    -1.685000000    -0.791000000    -4.603000000
H    -1.408000000    -1.308000000    -2.705000000
C    -4.438000000    -0.391000000    -2.467000000
C    -4.216000000     0.421000000    -3.701000000
H    -5.050000000     1.116000000    -3.811000000
H    -4.336000000    -0.290000000    -4.522000000
C    -2.865000000     1.158000000    -3.688000000
C    -1.698000000     0.504000000    -4.178000000
C    -0.528000000     1.163000000    -4.208000000
H     0.386000000     0.627000000    -4.451000000
C    -0.430000000     2.461000000    -3.862000000
O     0.749000000     3.049000000    -3.659000000
C     1.384000000     2.883000000    -2.374000000
H     0.801000000     2.247000000    -1.692000000
C     2.743000000     2.229000000    -2.479000000
C     3.620000000     2.360000000    -1.353000000
H     3.396000000     2.949000000    -0.468000000
C     3.115000000     1.452000000    -3.572000000
H     2.508000000     1.462000000    -4.474000000
C     4.312000000     0.805000000    -3.546000000
O     4.836000000     0.151000000    -4.622000000
C     5.155000000     0.720000000    -2.388000000
H     6.007000000     0.049000000    -2.309000000
C     4.789000000     1.598000000    -1.350000000
O     5.712000000     1.780000000    -0.342000000
C     5.713000000     2.780000000     0.591000000
C     5.276000000     2.538000000     1.936000000
H     5.176000000     1.493000000     2.217000000
C     5.974000000     4.113000000     0.229000000
H     6.319000000     4.377000000    -0.768000000
C     5.941000000     5.099000000     1.183000000
H     6.112000000     6.066000000     0.717000000
C     5.519000000     4.899000000     2.500000000
H     5.240000000     5.717000000     3.159000000
C     5.152000000     3.599000000     2.840000000
O     4.817000000     3.316000000     4.179000000
C     3.508000000     2.938000000     4.456000000
C     3.257000000     2.379000000     5.710000000
H     4.073000000     2.090000000     6.368000000
C     1.943000000     1.965000000     6.120000000
O     1.717000000     1.231000000     7.234000000
C     0.793000000     0.173000000     7.188000000
C     0.951000000    -0.991000000     6.397000000
H     1.868000000    -1.089000000     5.821000000
C    -0.368000000     0.318000000     7.897000000
H    -0.470000000     1.259000000     8.431000000
C    -1.418000000    -0.563000000     7.840000000
H    -2.380000000    -0.471000000     8.338000000
C    -1.259000000    -1.685000000     6.989000000
H    -2.109000000    -2.341000000     6.821000000
C    -0.102000000    -1.967000000     6.357000000
O     0.181000000    -3.099000000     5.567000000
C    -0.310000000    -3.427000000     4.350000000
C     0.273000000    -4.445000000     3.584000000
H     1.079000000    -5.073000000     3.956000000
C    -0.223000000    -4.612000000     2.302000000
O     0.361000000    -5.699000000     1.655000000
C    -0.162000000    -6.461000000     0.657000000
C    -0.004000000    -6.108000000    -0.750000000
H     0.568000000    -5.241000000    -1.068000000
C    -1.000000000    -7.524000000     0.972000000
H    -1.112000000    -7.732000000     2.033000000
C    -1.752000000    -8.240000000     0.042000000
H    -2.500000000    -8.933000000     0.418000000
C    -1.710000000    -7.847000000    -1.303000000
H    -2.250000000    -8.345000000    -2.104000000
C    -0.735000000    -6.846000000    -1.691000000
O    -0.580000000    -6.580000000    -3.016000000
C    -0.283000000    -5.279000000    -3.521000000
C     0.881000000    -5.116000000    -4.263000000
H     1.460000000    -6.007000000    -4.493000000
C     1.144000000    -3.871000000    -4.822000000
O     2.262000000    -3.869000000    -5.598000000
C     2.892000000    -2.714000000    -6.012000000
C     2.821000000    -2.344000000    -7.361000000
H     2.409000000    -3.071000000    -8.056000000
C     3.363000000    -1.125000000    -7.763000000
H     3.218000000    -0.924000000    -8.821000000
C     3.928000000    -0.245000000    -6.798000000
H     4.401000000     0.667000000    -7.153000000
C     4.102000000    -0.651000000    -5.514000000
C     3.552000000    -1.873000000    -5.140000000
H     3.724000000    -2.261000000    -4.139000000
C     1.476000000    -1.464000000     1.422000000
H     2.019000000    -1.945000000     2.232000000
C     0.572000000    -0.395000000     1.600000000
H     0.420000000    -0.051000000     2.620000000
C    -0.094000000     0.228000000     0.559000000
H    -0.769000000     1.088000000     0.671000000
C     0.022000000    -0.226000000    -0.707000000
H    -0.542000000     0.194000000    -1.536000000
C     0.904000000    -1.330000000    -0.884000000
H     0.985000000    -1.659000000    -1.917000000
C     1.578000000    -1.947000000     0.110000000
C     2.541000000    -3.014000000    -0.237000000
O     2.606000000    -3.533000000    -1.300000000
O     3.390000000    -3.411000000     0.602000000
O     3.794000000    -4.266000000     3.183000000
H     4.655000000    -3.853000000     3.126000000
H     3.300000000    -3.892000000     2.453000000
O     0.890000000    -8.964000000    -3.172000000
H     1.792000000    -8.679000000    -3.317000000
H     0.440000000    -8.182000000    -2.853000000
O     8.776000000    -2.747000000    -1.566000000
H     8.942000000    -2.044000000    -2.194000000
H     9.519000000    -3.341000000    -1.669000000
O     6.722000000    -8.417000000    -0.788000000
H     6.667000000    -7.666000000    -1.379000000
H     6.993000000    -8.042000000     0.050000000
O     5.466000000    -2.322000000     1.661000000
H     5.942000000    -1.909000000     0.940000000
H     4.811000000    -2.873000000     1.231000000
O     5.495000000    -1.481000000     4.319000000
H     5.882000000    -0.618000000     4.178000000
H     5.370000000    -1.835000000     3.439000000
O     3.575000000    -8.617000000     1.866000000
H     3.895000000    -9.335000000     1.320000000
H     3.173000000    -8.007000000     1.247000000
O     5.244000000    -5.277000000     0.344000000
H     4.546000000    -5.918000000     0.479000000
H     4.783000000    -4.459000000     0.156000000
O     3.516000000    -5.591000000    -2.555000000
H     3.077000000    -4.913000000    -2.042000000
H     4.241000000    -5.135000000    -2.983000000
O     7.102000000    -1.729000000    -3.884000000
H     6.429000000    -2.173000000    -3.368000000
H     7.567000000    -2.437000000    -4.329000000
O     6.917000000    -1.300000000    -0.471000000
H     7.397000000    -2.027000000    -0.867000000
H     7.548000000    -0.889000000     0.119000000
O     6.836000000    -5.656000000    -1.912000000
H     6.498000000    -5.117000000    -2.627000000
H     6.323000000    -5.390000000    -1.149000000
O     5.709000000    -4.831000000    -4.307000000
H     5.328000000    -4.093000000    -4.782000000
H     5.787000000    -5.524000000    -4.963000000
O     2.998000000    -6.581000000    -0.035000000
H     2.561000000    -5.806000000     0.319000000
H     2.903000000    -6.497000000    -0.984000000
O     3.560000000    -8.300000000    -2.921000000
H     3.581000000    -7.346000000    -2.843000000
H     3.830000000    -8.473000000    -3.822000000
O     3.739000000    -4.007000000     5.847000000
H     3.721000000    -4.115000000     4.896000000
H     3.073000000    -4.615000000     6.169000000
O     7.874000000    -3.755000000     2.123000000
H     6.932000000    -3.622000000     2.014000000
H     7.943000000    -4.473000000     2.753000000
O     5.291000000    -2.975000000    -2.233000000
H     4.430000000    -3.368000000    -2.092000000
H     5.547000000    -2.644000000    -1.372000000
O     7.158000000    -6.965000000     1.370000000
H     6.642000000    -6.285000000     0.937000000
H     7.248000000    -6.659000000     2.272000000
