215
-1429.68374
C     0.605000000     1.927000000     4.726000000
H    -0.400000000     1.671000000     5.052000000
C     0.649000000     2.635000000     3.536000000
C     1.915000000     2.896000000     2.944000000
H     2.031000000     3.440000000     2.010000000
C    -0.624000000     3.158000000     2.824000000
O    -1.812000000     3.173000000     3.651000000
H    -0.895000000     2.387000000     2.087000000
O    -0.515000000     4.411000000     2.196000000
C    -0.840000000     4.461000000     0.852000000
C     0.194000000     4.502000000    -0.098000000
H     1.213000000     4.574000000     0.274000000
C    -0.008000000     4.286000000    -1.454000000
O     1.061000000     4.162000000    -2.338000000
C    -1.337000000     4.165000000    -1.938000000
C    -1.673000000     3.955000000    -3.475000000
H    -2.684000000     4.323000000    -3.659000000
C    -1.597000000     2.582000000    -3.924000000
C    -2.786000000     1.807000000    -3.918000000
H    -3.722000000     2.309000000    -3.684000000
H    -0.913000000     4.526000000    -4.012000000
C    -2.406000000     4.256000000    -0.991000000
H    -3.433000000     4.339000000    -1.338000000
C    -2.180000000     4.498000000     0.358000000
C    -3.301000000     4.481000000     1.364000000
H    -4.228000000     4.785000000     0.874000000
H    -3.140000000     5.226000000     2.146000000
C    -3.575000000     3.074000000     1.919000000
C    -4.408000000     2.219000000     1.233000000
H    -4.985000000     2.636000000     0.412000000
C    -2.897000000     2.584000000     3.071000000
C    -3.108000000     1.269000000     3.506000000
H    -2.737000000     0.920000000     4.467000000
C    -3.907000000     0.376000000     2.726000000
O    -3.994000000    -0.902000000     3.061000000
C    -3.168000000    -1.851000000     2.289000000
C    -2.533000000    -2.912000000     3.216000000
C    -2.175000000    -4.156000000     2.639000000
H    -2.283000000    -4.237000000     1.560000000
C    -2.074000000    -2.555000000     4.471000000
H    -2.394000000    -1.591000000     4.858000000
O    -4.022000000    -2.432000000     1.305000000
H    -2.380000000    -1.338000000     1.717000000
C    -4.613000000     0.890000000     1.640000000
C    -5.622000000     0.006000000     0.871000000
H    -6.343000000     0.730000000     0.486000000
H    -6.156000000    -0.627000000     1.583000000
C    -5.013000000    -0.827000000    -0.281000000
C    -4.964000000    -0.325000000    -1.548000000
H    -5.436000000     0.611000000    -1.836000000
C    -4.196000000    -1.927000000    -0.013000000
C    -3.466000000    -2.585000000    -0.978000000
H    -2.871000000    -3.458000000    -0.724000000
C    -3.365000000    -2.024000000    -2.253000000
O    -2.618000000    -2.685000000    -3.156000000
C    -1.321000000    -2.183000000    -3.469000000
C    -0.197000000    -3.176000000    -3.557000000
C     0.018000000    -3.967000000    -2.436000000
H    -0.688000000    -3.996000000    -1.611000000
C     0.706000000    -3.173000000    -4.623000000
H     0.539000000    -2.525000000    -5.480000000
O    -1.428000000    -1.436000000    -4.663000000
H    -0.936000000    -1.558000000    -2.650000000
C    -4.082000000    -0.853000000    -2.531000000
C    -4.033000000    -0.247000000    -3.901000000
H    -4.834000000     0.473000000    -4.082000000
H    -4.232000000    -1.084000000    -4.572000000
C    -2.746000000     0.518000000    -4.214000000
C    -1.525000000    -0.116000000    -4.468000000
C    -0.350000000     0.641000000    -4.576000000
H     0.596000000     0.164000000    -4.821000000
C    -0.350000000     1.988000000    -4.215000000
O     0.819000000     2.625000000    -4.129000000
C     1.411000000     2.879000000    -2.850000000
H     0.994000000     2.177000000    -2.113000000
C     2.944000000     2.561000000    -2.870000000
C     3.800000000     3.381000000    -2.136000000
H     3.394000000     4.230000000    -1.591000000
C     3.506000000     1.514000000    -3.681000000
H     2.803000000     0.876000000    -4.211000000
C     4.824000000     1.257000000    -3.571000000
O     5.344000000     0.090000000    -4.087000000
C     5.628000000     2.002000000    -2.687000000
H     6.662000000     1.735000000    -2.486000000
C     5.106000000     3.053000000    -1.966000000
O     5.897000000     3.849000000    -1.167000000
C     5.482000000     4.219000000     0.061000000
C     5.019000000     3.228000000     0.908000000
H     4.942000000     2.220000000     0.509000000
C     5.598000000     5.506000000     0.505000000
H     6.024000000     6.218000000    -0.198000000
C     5.144000000     5.891000000     1.786000000
H     5.170000000     6.930000000     2.105000000
C     4.795000000     4.859000000     2.685000000
H     4.495000000     5.028000000     3.716000000
C     4.680000000     3.525000000     2.237000000
O     4.347000000     2.558000000     3.131000000
C     3.119000000     2.392000000     3.609000000
C     3.035000000     1.568000000     4.740000000
H     3.938000000     1.187000000     5.210000000
C     1.761000000     1.362000000     5.303000000
O     1.708000000     0.821000000     6.518000000
C     0.678000000     0.063000000     6.963000000
C     0.426000000    -1.242000000     6.404000000
H     1.079000000    -1.510000000     5.577000000
C    -0.069000000     0.471000000     8.091000000
H     0.216000000     1.439000000     8.495000000
C    -1.057000000    -0.322000000     8.592000000
H    -1.582000000     0.144000000     9.422000000
C    -1.371000000    -1.521000000     7.977000000
H    -2.182000000    -2.092000000     8.421000000
C    -0.627000000    -1.980000000     6.868000000
O    -0.882000000    -3.207000000     6.448000000
C    -1.282000000    -3.505000000     5.183000000
C    -1.043000000    -4.759000000     4.667000000
H    -0.344000000    -5.364000000     5.239000000
C    -1.422000000    -5.126000000     3.383000000
O    -0.901000000    -6.309000000     2.841000000
C    -0.825000000    -6.484000000     1.497000000
C     0.195000000    -5.893000000     0.809000000
H     0.976000000    -5.286000000     1.261000000
C    -1.653000000    -7.350000000     0.843000000
H    -2.411000000    -7.949000000     1.343000000
C    -1.448000000    -7.622000000    -0.508000000
H    -2.152000000    -8.351000000    -0.902000000
C    -0.491000000    -6.964000000    -1.226000000
H    -0.193000000    -7.422000000    -2.165000000
C     0.276000000    -6.012000000    -0.581000000
O     1.389000000    -5.570000000    -1.212000000
C     1.185000000    -4.755000000    -2.365000000
C     2.163000000    -4.716000000    -3.396000000
H     3.078000000    -5.293000000    -3.287000000
C     1.944000000    -3.850000000    -4.473000000
O     2.956000000    -3.798000000    -5.424000000
C     3.647000000    -2.634000000    -5.691000000
C     3.954000000    -2.411000000    -6.991000000
H     3.536000000    -3.068000000    -7.750000000
C     4.690000000    -1.281000000    -7.348000000
H     4.759000000    -0.970000000    -8.387000000
C     5.091000000    -0.403000000    -6.338000000
H     5.583000000     0.530000000    -6.602000000
C     4.724000000    -0.658000000    -5.028000000
C     4.138000000    -1.840000000    -4.687000000
H     3.907000000    -2.147000000    -3.670000000
C     1.762000000    -1.600000000     2.150000000
H     1.825000000    -1.874000000     3.200000000
C     1.252000000    -0.333000000     1.803000000
H     0.693000000     0.090000000     2.635000000
C     1.175000000     0.114000000     0.467000000
H     0.636000000     1.017000000     0.279000000
C     1.908000000    -0.541000000    -0.496000000
H     2.035000000    -0.012000000    -1.436000000
C     2.616000000    -1.722000000    -0.134000000
H     3.232000000    -2.178000000    -0.905000000
C     2.437000000    -2.324000000     1.103000000
C     3.180000000    -3.559000000     1.564000000
O     3.919000000    -4.159000000     0.852000000
O     3.235000000    -3.724000000     2.795000000
O     8.209000000    -1.537000000    -1.366000000
H     7.566000000    -2.085000000    -0.917000000
H     8.601000000    -1.009000000    -0.670000000
O     3.093000000    -6.563000000     1.910000000
H     3.201000000    -5.646000000     1.658000000
H     3.816000000    -6.732000000     2.514000000
O     4.753000000    -1.620000000     3.770000000
H     4.738000000    -1.774000000     4.715000000
H     4.242000000    -2.340000000     3.402000000
O     6.896000000     0.039000000     4.301000000
H     6.235000000    -0.645000000     4.198000000
H     6.654000000     0.486000000     5.112000000
O     3.757000000    -6.161000000     6.121000000
H     4.345000000    -5.665000000     6.690000000
H     4.218000000    -6.209000000     5.284000000
O     1.183000000    -7.525000000     4.746000000
H     1.845000000    -7.763000000     5.396000000
H     1.670000000    -7.051000000     4.072000000
O     7.288000000    -2.823000000     2.438000000
H     6.604000000    -2.420000000     2.974000000
H     6.870000000    -2.974000000     1.590000000
O     4.023000000    -6.202000000    -0.976000000
H     4.250000000    -5.517000000    -0.346000000
H     3.068000000    -6.250000000    -0.944000000
O     8.130000000    -5.440000000     4.418000000
H     7.795000000    -4.545000000     4.476000000
H     8.748000000    -5.511000000     5.146000000
O     4.903000000    -0.217000000     1.483000000
H     4.051000000    -0.241000000     1.048000000
H     4.757000000    -0.660000000     2.319000000
O     5.339000000    -7.541000000    -2.817000000
H     4.893000000    -7.910000000    -3.579000000
H     4.654000000    -7.068000000    -2.344000000
O     7.431000000     1.045000000     0.291000000
H     8.014000000     1.156000000     1.043000000
H     6.673000000     0.578000000     0.643000000
O     2.580000000    -3.653000000     5.368000000
H     2.682000000    -4.554000000     5.675000000
H     2.739000000    -3.701000000     4.425000000
O     5.106000000    -5.982000000     3.762000000
H     4.924000000    -5.170000000     3.290000000
H     6.014000000    -5.892000000     4.053000000
O     2.568000000    -9.137000000     1.217000000
H     2.159000000    -9.025000000     0.359000000
H     2.739000000    -8.245000000     1.519000000
O     2.396000000    -3.174000000     8.038000000
H     3.301000000    -3.432000000     8.208000000
H     2.293000000    -3.269000000     7.091000000
O     6.767000000    -7.835000000     1.305000000
H     7.064000000    -7.942000000     0.401000000
H     6.047000000    -8.459000000     1.395000000
O     6.117000000    -3.287000000    -0.176000000
H     5.236000000    -3.622000000    -0.010000000
H     6.610000000    -4.049000000    -0.477000000
O     8.114000000    -5.425000000     1.059000000
H     7.713000000    -6.291000000     1.136000000
H     7.873000000    -4.976000000     1.870000000
