215
-1444.81793
C     1.693000000     0.840000000     5.069000000
H     0.744000000     0.426000000     5.402000000
C     1.697000000     1.919000000     4.194000000
C     2.943000000     2.407000000     3.776000000
H     3.099000000     3.328000000     3.220000000
C     0.357000000     2.450000000     3.629000000
O    -0.797000000     2.211000000     4.424000000
H     0.255000000     1.953000000     2.653000000
O     0.379000000     3.853000000     3.391000000
C    -0.096000000     4.259000000     2.138000000
C     0.799000000     4.401000000     1.097000000
H     1.857000000     4.314000000     1.330000000
C     0.401000000     4.635000000    -0.221000000
O     1.348000000     4.466000000    -1.216000000
C    -0.943000000     4.794000000    -0.512000000
C    -1.460000000     4.866000000    -1.946000000
H    -2.375000000     5.462000000    -1.922000000
C    -1.627000000     3.531000000    -2.591000000
C    -2.880000000     2.935000000    -2.669000000
H    -3.693000000     3.463000000    -2.177000000
H    -0.847000000     5.499000000    -2.591000000
C    -1.915000000     4.745000000     0.497000000
H    -2.993000000     4.651000000     0.402000000
C    -1.483000000     4.354000000     1.761000000
C    -2.475000000     4.124000000     2.863000000
H    -3.351000000     4.719000000     2.597000000
H    -2.169000000     4.615000000     3.789000000
C    -2.836000000     2.704000000     3.099000000
C    -3.883000000     2.168000000     2.384000000
H    -4.548000000     2.861000000     1.876000000
C    -1.992000000     1.819000000     3.864000000
C    -2.215000000     0.484000000     3.872000000
H    -1.531000000    -0.188000000     4.384000000
C    -3.205000000    -0.079000000     3.104000000
O    -3.245000000    -1.425000000     3.003000000
C    -3.035000000    -2.117000000     1.745000000
C    -2.025000000    -3.271000000     1.984000000
C    -2.166000000    -4.458000000     1.220000000
H    -3.011000000    -4.503000000     0.538000000
C    -0.965000000    -3.183000000     2.914000000
H    -0.854000000    -2.275000000     3.502000000
O    -4.302000000    -2.439000000     1.062000000
H    -2.503000000    -1.382000000     1.123000000
C    -4.083000000     0.797000000     2.376000000
C    -5.288000000     0.242000000     1.574000000
H    -6.019000000     1.035000000     1.402000000
H    -5.846000000    -0.502000000     2.145000000
C    -4.979000000    -0.256000000     0.176000000
C    -5.022000000     0.536000000    -0.947000000
H    -5.312000000     1.575000000    -0.812000000
C    -4.661000000    -1.609000000    -0.008000000
C    -4.378000000    -2.134000000    -1.212000000
H    -3.878000000    -3.097000000    -1.280000000
C    -4.257000000    -1.284000000    -2.237000000
O    -3.611000000    -1.742000000    -3.366000000
C    -2.206000000    -1.257000000    -3.406000000
C    -1.267000000    -2.396000000    -3.818000000
C    -1.564000000    -3.722000000    -3.562000000
H    -2.587000000    -3.969000000    -3.291000000
C     0.040000000    -2.069000000    -4.249000000
H     0.260000000    -1.023000000    -4.446000000
O    -2.055000000    -0.145000000    -4.331000000
H    -1.853000000    -0.888000000    -2.432000000
C    -4.614000000     0.018000000    -2.149000000
C    -4.449000000     1.064000000    -3.290000000
H    -5.225000000     1.822000000    -3.415000000
H    -4.490000000     0.499000000    -4.223000000
C    -3.060000000     1.695000000    -3.254000000
C    -1.954000000     1.115000000    -3.819000000
C    -0.694000000     1.725000000    -3.808000000
H     0.164000000     1.224000000    -4.250000000
C    -0.561000000     2.948000000    -3.221000000
O     0.594000000     3.525000000    -3.176000000
C     1.438000000     3.268000000    -1.982000000
H     1.222000000     2.315000000    -1.478000000
C     2.886000000     3.081000000    -2.263000000
C     3.875000000     3.501000000    -1.361000000
H     3.741000000     4.246000000    -0.580000000
C     3.244000000     2.291000000    -3.317000000
H     2.474000000     1.929000000    -3.994000000
C     4.527000000     1.889000000    -3.548000000
O     5.006000000     1.044000000    -4.562000000
C     5.446000000     2.088000000    -2.576000000
H     6.467000000     1.717000000    -2.614000000
C     5.153000000     2.997000000    -1.544000000
O     6.217000000     3.321000000    -0.684000000
C     6.019000000     3.739000000     0.556000000
C     5.624000000     2.818000000     1.554000000
H     5.365000000     1.817000000     1.217000000
C     6.224000000     5.069000000     0.910000000
H     6.580000000     5.795000000     0.183000000
C     6.270000000     5.459000000     2.229000000
H     6.633000000     6.471000000     2.392000000
C     5.994000000     4.512000000     3.250000000
H     5.984000000     4.835000000     4.288000000
C     5.575000000     3.224000000     2.868000000
O     5.373000000     2.222000000     3.803000000
C     4.114000000     1.797000000     4.242000000
C     4.078000000     0.831000000     5.216000000
H     5.029000000     0.466000000     5.595000000
C     2.856000000     0.276000000     5.639000000
O     2.814000000    -0.724000000     6.616000000
C     1.881000000    -1.660000000     6.384000000
C     1.928000000    -2.519000000     5.299000000
H     2.807000000    -2.466000000     4.661000000
C     0.767000000    -1.625000000     7.274000000
H     0.708000000    -0.912000000     8.093000000
C    -0.316000000    -2.500000000     7.086000000
H    -1.078000000    -2.446000000     7.860000000
C    -0.256000000    -3.380000000     5.956000000
H    -1.070000000    -4.079000000     5.780000000
C     0.872000000    -3.434000000     5.110000000
O     0.932000000    -4.235000000     3.927000000
C    -0.136000000    -4.266000000     3.069000000
C    -0.318000000    -5.427000000     2.372000000
H     0.410000000    -6.231000000     2.451000000
C    -1.315000000    -5.565000000     1.445000000
O    -1.513000000    -6.772000000     0.885000000
C    -1.903000000    -7.036000000    -0.485000000
C    -1.263000000    -6.407000000    -1.576000000
H    -0.405000000    -5.764000000    -1.398000000
C    -3.091000000    -7.729000000    -0.726000000
H    -3.560000000    -8.238000000     0.112000000
C    -3.544000000    -7.928000000    -2.026000000
H    -4.437000000    -8.537000000    -2.144000000
C    -2.828000000    -7.389000000    -3.147000000
H    -3.163000000    -7.558000000    -4.167000000
C    -1.697000000    -6.623000000    -2.899000000
O    -1.050000000    -6.040000000    -3.970000000
C    -0.678000000    -4.726000000    -3.916000000
C     0.615000000    -4.430000000    -4.386000000
H     1.332000000    -5.215000000    -4.615000000
C     0.963000000    -3.093000000    -4.581000000
O     2.250000000    -2.832000000    -5.082000000
C     2.663000000    -1.598000000    -5.514000000
C     2.130000000    -1.014000000    -6.661000000
H     1.315000000    -1.533000000    -7.160000000
C     2.562000000     0.181000000    -7.221000000
H     2.149000000     0.617000000    -8.127000000
C     3.651000000     0.760000000    -6.565000000
H     3.939000000     1.748000000    -6.914000000
C     4.202000000     0.263000000    -5.373000000
C     3.727000000    -0.950000000    -4.895000000
H     4.262000000    -1.331000000    -4.028000000
C     2.791000000    -1.002000000     1.799000000
H     3.392000000    -1.062000000     2.702000000
C     1.446000000    -0.631000000     1.685000000
H     0.872000000    -0.468000000     2.594000000
C     0.789000000    -0.518000000     0.485000000
H    -0.306000000    -0.340000000     0.523000000
C     1.470000000    -0.822000000    -0.679000000
H     0.968000000    -0.717000000    -1.637000000
C     2.872000000    -1.055000000    -0.661000000
H     3.344000000    -1.236000000    -1.623000000
C     3.508000000    -1.288000000     0.558000000
C     4.996000000    -1.610000000     0.578000000
O     5.532000000    -1.592000000    -0.504000000
O     5.534000000    -2.033000000     1.609000000
O     4.674000000    -3.629000000     3.586000000
H     4.949000000    -4.522000000     3.379000000
H     4.836000000    -3.135000000     2.782000000
O     6.216000000    -3.210000000    -4.050000000
H     7.064000000    -3.633000000    -4.185000000
H     6.372000000    -2.580000000    -3.347000000
O     7.998000000    -5.051000000    -0.482000000
H     8.171000000    -5.546000000    -1.283000000
H     7.043000000    -5.036000000    -0.411000000
O     6.471000000    -1.325000000     4.580000000
H     7.272000000    -1.833000000     4.451000000
H     5.911000000    -1.570000000     3.843000000
O     9.195000000    -2.664000000    -1.181000000
H     8.857000000    -3.516000000    -0.905000000
H     8.622000000    -2.029000000    -0.750000000
O     8.158000000     0.780000000     2.470000000
H     8.140000000     1.576000000     3.003000000
H     7.288000000     0.397000000     2.582000000
O     9.456000000    -2.338000000     4.563000000
H     9.209000000    -2.745000000     5.393000000
H     8.989000000    -2.846000000     3.899000000
O    11.192000000    -3.072000000     1.836000000
H    10.291000000    -2.833000000     1.615000000
H    11.260000000    -2.908000000     2.777000000
O     8.892000000    -2.187000000    -3.741000000
H     8.131000000    -1.822000000    -3.289000000
H     9.293000000    -2.773000000    -3.099000000
O     4.874000000    -4.605000000    -0.342000000
H     4.750000000    -3.759000000     0.087000000
H     4.317000000    -4.563000000    -1.120000000
O     2.473000000    -6.419000000    -0.575000000
H     2.209000000    -5.499000000    -0.575000000
H     3.268000000    -6.440000000    -0.042000000
O     4.261000000    -5.626000000     5.904000000
H     3.407000000    -5.602000000     6.337000000
H     4.132000000    -5.135000000     5.093000000
O     6.897000000    -0.952000000    -2.468000000
H     6.283000000    -1.266000000    -1.804000000
H     7.304000000    -0.182000000    -2.074000000
O     5.498000000    -6.446000000    -2.833000000
H     6.434000000    -6.644000000    -2.866000000
H     5.435000000    -5.535000000    -3.120000000
O     8.322000000     0.782000000    -0.600000000
H     9.036000000     1.399000000    -0.438000000
H     8.113000000     0.425000000     0.263000000
O     7.956000000    -3.236000000     2.265000000
H     7.741000000    -4.159000000     2.400000000
H     7.194000000    -2.877000000     1.810000000
O     1.509000000    -3.756000000    -0.474000000
H     1.073000000    -3.202000000    -1.121000000
H     1.639000000    -3.185000000     0.283000000
O     3.715000000    -4.130000000    -3.093000000
H     3.150000000    -3.741000000    -3.760000000
H     4.591000000    -3.802000000    -3.300000000
O     5.174000000    -6.234000000     2.596000000
H     5.300000000    -6.259000000     1.647000000
H     4.517000000    -6.908000000     2.768000000
