215
-1452.03831
C     5.007000000    -0.509000000    -2.165000000
H     5.046000000    -1.574000000    -2.378000000
C     4.781000000     0.067000000    -0.893000000
C     4.929000000     1.464000000    -0.677000000
H     5.011000000     1.885000000     0.322000000
C     4.265000000    -0.820000000     0.253000000
O     4.515000000    -2.281000000     0.070000000
H     3.178000000    -0.658000000     0.210000000
O     4.802000000    -0.314000000     1.455000000
C     3.927000000    -0.099000000     2.453000000
C     3.335000000     1.125000000     2.518000000
H     3.585000000     1.906000000     1.805000000
C     2.366000000     1.316000000     3.488000000
O     1.812000000     2.618000000     3.490000000
C     1.876000000     0.257000000     4.349000000
C     0.796000000     0.510000000     5.331000000
H     0.833000000    -0.112000000     6.228000000
C    -0.478000000     0.305000000     4.534000000
C    -1.175000000    -0.896000000     4.515000000
H    -0.739000000    -1.821000000     4.884000000
H     0.867000000     1.546000000     5.670000000
C     2.400000000    -1.033000000     4.160000000
H     2.012000000    -1.841000000     4.776000000
C     3.394000000    -1.208000000     3.163000000
C     3.917000000    -2.607000000     2.901000000
H     3.954000000    -3.233000000     3.795000000
H     4.972000000    -2.509000000     2.635000000
C     3.141000000    -3.297000000     1.778000000
C     2.088000000    -4.120000000     2.146000000
H     1.730000000    -4.077000000     3.171000000
C     3.518000000    -3.172000000     0.434000000
C     2.757000000    -3.740000000    -0.528000000
H     2.962000000    -3.487000000    -1.565000000
C     1.697000000    -4.599000000    -0.231000000
O     0.932000000    -5.104000000    -1.253000000
C    -0.293000000    -4.335000000    -1.452000000
C    -0.526000000    -4.019000000    -2.931000000
C    -1.740000000    -4.162000000    -3.501000000
H    -2.567000000    -4.557000000    -2.915000000
C     0.438000000    -3.318000000    -3.671000000
H     1.348000000    -2.995000000    -3.171000000
O    -1.435000000    -5.005000000    -0.856000000
H    -0.196000000    -3.329000000    -1.018000000
C     1.377000000    -4.788000000     1.142000000
C     0.121000000    -5.524000000     1.543000000
H     0.173000000    -5.918000000     2.560000000
H    -0.058000000    -6.408000000     0.928000000
C    -1.125000000    -4.596000000     1.507000000
C    -1.639000000    -3.944000000     2.656000000
H    -0.978000000    -4.002000000     3.516000000
C    -1.876000000    -4.503000000     0.347000000
C    -3.019000000    -3.673000000     0.378000000
H    -3.557000000    -3.601000000    -0.564000000
C    -3.362000000    -2.887000000     1.442000000
O    -4.320000000    -1.862000000     1.282000000
C    -3.897000000    -0.485000000     1.262000000
C    -4.613000000     0.310000000     0.135000000
C    -5.056000000    -0.275000000    -1.095000000
H    -4.998000000    -1.354000000    -1.208000000
C    -4.556000000     1.667000000     0.187000000
H    -4.175000000     2.124000000     1.097000000
O    -4.201000000     0.076000000     2.595000000
H    -2.824000000    -0.451000000     1.020000000
C    -2.745000000    -3.118000000     2.624000000
C    -3.097000000    -2.366000000     3.846000000
H    -2.838000000    -2.956000000     4.728000000
H    -4.179000000    -2.221000000     3.878000000
C    -2.445000000    -1.041000000     3.875000000
C    -3.074000000     0.077000000     3.323000000
C    -2.383000000     1.287000000     3.319000000
H    -2.772000000     2.113000000     2.729000000
C    -1.108000000     1.397000000     3.943000000
O    -0.478000000     2.628000000     3.986000000
C     0.529000000     2.895000000     2.942000000
H     0.415000000     2.116000000     2.173000000
C     0.400000000     4.317000000     2.441000000
C     1.565000000     4.850000000     1.854000000
H     2.495000000     4.288000000     1.840000000
C    -0.792000000     4.965000000     2.250000000
H    -1.739000000     4.595000000     2.634000000
C    -0.861000000     6.201000000     1.689000000
O    -2.105000000     6.858000000     1.685000000
C     0.306000000     6.782000000     1.204000000
H     0.174000000     7.752000000     0.732000000
C     1.531000000     6.135000000     1.281000000
O     2.710000000     6.704000000     0.740000000
C     3.823000000     6.027000000     0.543000000
C     4.108000000     5.209000000    -0.537000000
H     3.298000000     5.048000000    -1.244000000
C     4.897000000     6.094000000     1.536000000
H     4.839000000     6.657000000     2.465000000
C     6.157000000     5.500000000     1.373000000
H     6.889000000     5.643000000     2.164000000
C     6.342000000     4.699000000     0.311000000
H     7.341000000     4.277000000     0.229000000
C     5.351000000     4.474000000    -0.572000000
O     5.603000000     3.588000000    -1.666000000
C     5.284000000     2.278000000    -1.786000000
C     5.333000000     1.675000000    -3.037000000
H     5.538000000     2.384000000    -3.834000000
C     5.271000000     0.252000000    -3.263000000
O     5.346000000    -0.278000000    -4.524000000
C     4.605000000    -1.325000000    -4.970000000
C     3.232000000    -1.187000000    -5.117000000
H     2.762000000    -0.229000000    -4.911000000
C     5.132000000    -2.629000000    -5.136000000
H     6.174000000    -2.763000000    -4.856000000
C     4.281000000    -3.659000000    -5.494000000
H     4.677000000    -4.665000000    -5.612000000
C     2.954000000    -3.395000000    -5.799000000
H     2.301000000    -4.164000000    -6.203000000
C     2.399000000    -2.133000000    -5.679000000
O     1.060000000    -1.960000000    -5.753000000
C     0.104000000    -2.687000000    -4.944000000
C    -1.184000000    -2.817000000    -5.438000000
H    -1.469000000    -2.378000000    -6.390000000
C    -2.103000000    -3.580000000    -4.728000000
O    -3.442000000    -3.596000000    -5.150000000
C    -4.493000000    -3.103000000    -4.451000000
C    -4.624000000    -1.767000000    -4.245000000
H    -3.827000000    -1.119000000    -4.599000000
C    -5.484000000    -4.029000000    -4.036000000
H    -5.181000000    -5.044000000    -4.280000000
C    -6.607000000    -3.614000000    -3.325000000
H    -7.417000000    -4.276000000    -3.030000000
C    -6.744000000    -2.255000000    -3.070000000
H    -7.592000000    -1.868000000    -2.510000000
C    -5.806000000    -1.355000000    -3.604000000
O    -6.039000000    -0.038000000    -3.262000000
C    -5.594000000     0.542000000    -2.084000000
C    -5.473000000     1.930000000    -2.030000000
H    -5.772000000     2.596000000    -2.835000000
C    -5.005000000     2.493000000    -0.833000000
O    -4.849000000     3.859000000    -0.773000000
C    -4.629000000     4.523000000     0.319000000
C    -5.688000000     4.717000000     1.251000000
H    -6.636000000     4.217000000     1.073000000
C    -5.529000000     5.600000000     2.288000000
H    -6.269000000     5.700000000     3.078000000
C    -4.269000000     6.261000000     2.442000000
H    -4.090000000     6.965000000     3.251000000
C    -3.280000000     6.151000000     1.450000000
C    -3.420000000     5.231000000     0.384000000
H    -2.587000000     4.987000000    -0.269000000
C    -1.530000000     0.271000000    -3.241000000
H    -2.367000000     0.570000000    -3.867000000
C    -1.730000000    -0.478000000    -2.037000000
H    -2.718000000    -0.859000000    -1.793000000
C    -0.680000000    -0.854000000    -1.200000000
H    -0.828000000    -1.323000000    -0.242000000
C     0.583000000    -0.488000000    -1.590000000
H     1.425000000    -0.729000000    -0.948000000
C     0.836000000     0.338000000    -2.727000000
H     1.816000000     0.682000000    -3.049000000
C    -0.276000000     0.779000000    -3.550000000
C    -0.058000000     1.602000000    -4.751000000
O     1.056000000     1.947000000    -5.126000000
O    -0.973000000     1.935000000    -5.439000000
O     1.213000000     2.271000000    -0.471000000
H     0.282000000     2.468000000    -0.376000000
H     1.238000000     1.497000000    -1.034000000
O     3.523000000     1.550000000    -6.620000000
H     2.972000000     1.223000000    -7.331000000
H     2.951000000     1.549000000    -5.853000000
O    -5.200000000     0.733000000    -5.988000000
H    -5.800000000     0.814000000    -5.247000000
H    -5.187000000     1.605000000    -6.382000000
O     2.153000000     6.989000000    -5.659000000
H     1.799000000     6.102000000    -5.722000000
H     2.460000000     7.187000000    -6.544000000
O    -1.096000000    -0.390000000    -8.967000000
H    -0.750000000    -1.283000000    -8.957000000
H    -1.738000000    -0.375000000    -8.257000000
O    -1.587000000     2.548000000    -0.135000000
H    -2.414000000     2.685000000     0.328000000
H    -1.769000000     2.819000000    -1.035000000
O    -4.273000000     5.086000000    -5.612000000
H    -3.694000000     4.601000000    -6.201000000
H    -4.742000000     5.693000000    -6.184000000
O    -2.568000000     0.322000000    -6.710000000
H    -3.492000000     0.379000000    -6.467000000
H    -2.122000000     0.902000000    -6.093000000
O     0.621000000     4.639000000    -5.919000000
H     0.656000000     3.874000000    -5.345000000
H    -0.171000000     5.105000000    -5.650000000
O     2.708000000     3.833000000    -3.696000000
H     2.056000000     4.018000000    -3.020000000
H     2.286000000     3.191000000    -4.267000000
O    -1.893000000     5.610000000    -8.379000000
H    -2.045000000     4.892000000    -7.765000000
H    -0.978000000     5.508000000    -8.644000000
O     0.836000000     4.547000000    -1.956000000
H     0.055000000     4.388000000    -2.486000000
H     0.932000000     3.755000000    -1.427000000
O     2.011000000    -0.962000000    -8.486000000
H     1.611000000    -1.632000000    -7.932000000
H     1.616000000    -0.141000000    -8.194000000
O    -2.682000000     3.448000000    -6.848000000
H    -3.093000000     2.770000000    -7.385000000
H    -2.049000000     2.976000000    -6.308000000
O     2.763000000     4.504000000    -7.342000000
H     2.692000000     3.621000000    -7.706000000
H     1.950000000     4.627000000    -6.852000000
O    -1.684000000     5.512000000    -4.695000000
H    -2.473000000     5.183000000    -5.126000000
H    -1.828000000     6.455000000    -4.620000000
O     0.061000000     3.167000000    -9.996000000
H    -0.751000000     2.665000000    -9.928000000
H     0.753000000     2.527000000    -9.825000000
O     1.140000000     1.784000000    -7.818000000
H     0.239000000     1.674000000    -8.121000000
H     1.058000000     1.966000000    -6.882000000
O    -1.533000000     3.520000000    -2.815000000
H    -1.782000000     4.380000000    -3.152000000
H    -1.661000000     2.926000000    -3.554000000
