215
-1442.71102
C     2.826000000    -0.404000000     4.366000000
H     1.982000000    -0.780000000     4.939000000
C     2.801000000     0.680000000     3.472000000
C     3.905000000     1.028000000     2.673000000
H     3.951000000     1.898000000     2.023000000
C     1.534000000     1.564000000     3.377000000
O     0.764000000     1.546000000     4.579000000
H     0.894000000     1.189000000     2.566000000
O     1.898000000     2.916000000     3.110000000
C     1.216000000     3.635000000     2.203000000
C     1.787000000     3.682000000     0.940000000
H     2.808000000     3.322000000     0.848000000
C     1.167000000     4.355000000    -0.071000000
O     1.840000000     4.513000000    -1.291000000
C    -0.116000000     4.878000000     0.062000000
C    -0.885000000     5.484000000    -1.124000000
H    -1.659000000     6.136000000    -0.713000000
C    -1.447000000     4.395000000    -2.035000000
C    -2.750000000     3.915000000    -1.673000000
H    -3.234000000     4.266000000    -0.765000000
H    -0.184000000     6.083000000    -1.710000000
C    -0.718000000     4.735000000     1.354000000
H    -1.707000000     5.179000000     1.430000000
C    -0.025000000     4.145000000     2.405000000
C    -0.737000000     4.013000000     3.771000000
H    -1.537000000     4.754000000     3.822000000
H    -0.014000000     4.300000000     4.538000000
C    -1.384000000     2.595000000     3.958000000
C    -2.714000000     2.394000000     3.517000000
H    -3.346000000     3.195000000     3.141000000
C    -0.584000000     1.473000000     4.334000000
C    -1.173000000     0.190000000     4.431000000
H    -0.601000000    -0.645000000     4.829000000
C    -2.478000000     0.030000000     4.027000000
O    -2.956000000    -1.237000000     3.928000000
C    -3.019000000    -1.907000000     2.656000000
C    -2.419000000    -3.284000000     2.767000000
C    -2.461000000    -4.086000000     1.612000000
H    -2.887000000    -3.733000000     0.677000000
C    -1.586000000    -3.630000000     3.859000000
H    -1.621000000    -2.946000000     4.703000000
O    -4.317000000    -1.757000000     1.947000000
H    -2.283000000    -1.466000000     1.967000000
C    -3.277000000     1.116000000     3.493000000
C    -4.716000000     0.940000000     2.955000000
H    -5.284000000     1.830000000     3.234000000
H    -5.108000000     0.044000000     3.440000000
C    -4.614000000     0.716000000     1.473000000
C    -4.728000000     1.707000000     0.438000000
H    -4.786000000     2.766000000     0.675000000
C    -4.520000000    -0.685000000     1.066000000
C    -4.539000000    -1.020000000    -0.323000000
H    -4.417000000    -2.071000000    -0.571000000
C    -4.607000000    -0.028000000    -1.265000000
O    -4.336000000    -0.431000000    -2.536000000
C    -3.007000000    -0.284000000    -3.008000000
C    -2.669000000    -1.510000000    -3.875000000
C    -3.351000000    -2.767000000    -3.794000000
H    -4.270000000    -2.841000000    -3.217000000
C    -1.503000000    -1.437000000    -4.508000000
H    -1.094000000    -0.440000000    -4.646000000
O    -2.842000000     0.973000000    -3.806000000
H    -2.406000000    -0.389000000    -2.092000000
C    -4.638000000     1.361000000    -0.880000000
C    -4.644000000     2.401000000    -2.031000000
H    -5.356000000     3.226000000    -1.959000000
H    -4.971000000     1.860000000    -2.921000000
C    -3.266000000     2.885000000    -2.345000000
C    -2.486000000     2.190000000    -3.278000000
C    -1.191000000     2.652000000    -3.602000000
H    -0.652000000     1.978000000    -4.263000000
C    -0.649000000     3.746000000    -2.965000000
O     0.704000000     3.948000000    -3.229000000
C     1.638000000     3.495000000    -2.302000000
H     1.114000000     2.630000000    -1.870000000
C     2.890000000     2.845000000    -2.894000000
C     4.087000000     2.893000000    -2.280000000
H     4.199000000     3.308000000    -1.282000000
C     2.791000000     2.216000000    -4.161000000
H     1.795000000     2.203000000    -4.596000000
C     3.827000000     1.684000000    -4.808000000
O     3.706000000     1.081000000    -6.079000000
C     5.070000000     1.695000000    -4.190000000
H     5.940000000     1.292000000    -4.703000000
C     5.176000000     2.247000000    -2.896000000
O     6.359000000     2.177000000    -2.211000000
C     6.587000000     2.405000000    -0.835000000
C     6.303000000     1.364000000     0.104000000
H     5.931000000     0.435000000    -0.322000000
C     7.010000000     3.696000000    -0.413000000
H     7.329000000     4.464000000    -1.113000000
C     7.216000000     3.842000000     0.970000000
H     7.581000000     4.830000000     1.242000000
C     6.972000000     2.846000000     1.872000000
H     7.276000000     3.078000000     2.889000000
C     6.526000000     1.574000000     1.474000000
O     6.299000000     0.584000000     2.335000000
C     5.036000000     0.226000000     2.836000000
C     5.124000000    -0.900000000     3.592000000
H     5.991000000    -1.550000000     3.507000000
C     4.024000000    -1.195000000     4.430000000
O     3.982000000    -2.366000000     5.149000000
C     2.833000000    -2.866000000     5.688000000
C     2.025000000    -3.708000000     4.947000000
H     2.322000000    -4.075000000     3.968000000
C     2.565000000    -2.585000000     7.005000000
H     3.153000000    -1.823000000     7.510000000
C     1.357000000    -3.005000000     7.558000000
H     1.125000000    -2.730000000     8.584000000
C     0.441000000    -3.753000000     6.835000000
H    -0.469000000    -4.218000000     7.205000000
C     0.861000000    -4.174000000     5.548000000
O     0.050000000    -5.060000000     4.818000000
C    -0.735000000    -4.702000000     3.732000000
C    -0.770000000    -5.558000000     2.645000000
H    -0.111000000    -6.418000000     2.552000000
C    -1.632000000    -5.227000000     1.508000000
O    -1.594000000    -6.163000000     0.470000000
C    -2.587000000    -6.166000000    -0.515000000
C    -2.425000000    -5.545000000    -1.781000000
H    -1.500000000    -5.103000000    -2.141000000
C    -3.769000000    -6.835000000    -0.267000000
H    -3.906000000    -7.160000000     0.762000000
C    -4.845000000    -6.877000000    -1.182000000
H    -5.793000000    -7.394000000    -1.057000000
C    -4.594000000    -6.301000000    -2.435000000
H    -5.262000000    -6.482000000    -3.273000000
C    -3.465000000    -5.626000000    -2.716000000
O    -3.247000000    -5.127000000    -4.026000000
C    -2.696000000    -3.925000000    -4.245000000
C    -1.442000000    -3.831000000    -4.936000000
H    -0.878000000    -4.698000000    -5.271000000
C    -0.854000000    -2.580000000    -5.064000000
O     0.361000000    -2.428000000    -5.696000000
C     0.801000000    -1.212000000    -6.319000000
C     0.156000000    -0.678000000    -7.468000000
H    -0.726000000    -1.191000000    -7.841000000
C     0.763000000     0.397000000    -8.077000000
H     0.211000000     0.942000000    -8.839000000
C     1.941000000     0.973000000    -7.592000000
H     2.428000000     1.836000000    -8.038000000
C     2.535000000     0.488000000    -6.451000000
C     1.905000000    -0.537000000    -5.776000000
H     2.345000000    -0.997000000    -4.895000000
C     1.842000000    -2.018000000     0.835000000
H     1.837000000    -2.753000000     1.636000000
C     0.656000000    -1.319000000     0.642000000
H    -0.177000000    -1.512000000     1.312000000
C     0.496000000    -0.474000000    -0.464000000
H    -0.491000000    -0.065000000    -0.709000000
C     1.593000000    -0.299000000    -1.291000000
H     1.510000000     0.210000000    -2.249000000
C     2.864000000    -0.896000000    -0.997000000
H     3.735000000    -0.590000000    -1.570000000
C     2.961000000    -1.816000000     0.019000000
C     4.203000000    -2.602000000     0.273000000
O     5.235000000    -2.309000000    -0.254000000
O     4.203000000    -3.591000000     0.969000000
O     5.178000000    -4.486000000     3.016000000
H     4.400000000    -5.010000000     3.208000000
H     4.987000000    -4.073000000     2.174000000
O     4.015000000    -7.916000000     1.476000000
H     3.587000000    -8.167000000     0.658000000
H     3.298000000    -7.828000000     2.104000000
O     7.930000000    -2.823000000     2.549000000
H     7.670000000    -2.456000000     1.704000000
H     7.837000000    -3.769000000     2.438000000
O     8.508000000    -1.614000000     4.848000000
H     8.305000000    -1.754000000     3.924000000
H     9.228000000    -2.218000000     5.030000000
O     7.338000000    -5.665000000     2.367000000
H     6.595000000    -5.211000000     2.766000000
H     7.108000000    -5.732000000     1.441000000
O     7.747000000    -1.649000000     0.025000000
H     7.894000000    -1.095000000    -0.742000000
H     6.833000000    -1.925000000    -0.050000000
O     8.088000000    -0.095000000    -2.423000000
H     7.582000000    -0.754000000    -2.898000000
H     8.645000000     0.307000000    -3.091000000
O     8.143000000    -2.689000000    -4.418000000
H     7.830000000    -3.245000000    -5.132000000
H     7.587000000    -2.919000000    -3.674000000
O     6.767000000    -4.870000000     5.430000000
H     6.353000000    -4.497000000     4.652000000
H     6.836000000    -4.135000000     6.040000000
O     2.850000000    -5.927000000    -3.393000000
H     3.023000000    -5.001000000    -3.565000000
H     2.573000000    -5.952000000    -2.477000000
O     6.152000000    -2.667000000    -2.654000000
H     6.060000000    -2.572000000    -1.706000000
H     5.265000000    -2.551000000    -2.993000000
O     4.327000000    -6.389000000     5.114000000
H     4.910000000    -7.148000000     5.071000000
H     4.879000000    -5.682000000     5.446000000
O    10.772000000    -1.427000000     0.291000000
H    11.315000000    -1.821000000    -0.392000000
H     9.878000000    -1.681000000     0.062000000
O     8.266000000    -7.002000000    -1.704000000
H     8.484000000    -6.303000000    -2.321000000
H     7.541000000    -6.649000000    -1.189000000
O     0.943000000    -3.522000000    -2.223000000
H     1.110000000    -2.753000000    -1.679000000
H     1.319000000    -4.251000000    -1.729000000
O     6.597000000    -5.163000000    -0.196000000
H     5.847000000    -4.756000000     0.237000000
H     6.879000000    -4.517000000    -0.843000000
O     3.284000000    -3.328000000    -4.421000000
H     2.392000000    -2.983000000    -4.448000000
H     3.713000000    -2.942000000    -5.184000000
O     6.038000000    -5.901000000    -4.099000000
H     5.820000000    -6.689000000    -3.602000000
H     5.284000000    -5.324000000    -3.977000000
O     2.570000000    -5.304000000    -0.588000000
H     2.910000000    -6.142000000    -0.277000000
H     3.044000000    -4.648000000    -0.076000000
