215
-1446.11026
C     2.893000000     0.308000000     4.708000000
H     1.989000000    -0.009000000     5.223000000
C     2.897000000     1.329000000     3.794000000
C     4.085000000     1.707000000     3.196000000
H     4.077000000     2.453000000     2.406000000
C     1.630000000     2.125000000     3.460000000
O     0.639000000     1.996000000     4.485000000
H     1.190000000     1.704000000     2.544000000
O     1.944000000     3.540000000     3.094000000
C     1.164000000     4.091000000     2.130000000
C     1.794000000     4.303000000     0.896000000
H     2.826000000     4.010000000     0.723000000
C     1.039000000     4.733000000    -0.188000000
O     1.528000000     4.710000000    -1.510000000
C    -0.317000000     4.883000000     0.006000000
C    -1.215000000     5.371000000    -1.135000000
H    -2.094000000     5.948000000    -0.843000000
C    -1.776000000     4.156000000    -1.897000000
C    -3.027000000     3.677000000    -1.516000000
H    -3.613000000     4.169000000    -0.745000000
H    -0.649000000     5.981000000    -1.842000000
C    -0.885000000     4.770000000     1.241000000
H    -1.946000000     4.914000000     1.429000000
C    -0.205000000     4.278000000     2.306000000
C    -0.938000000     4.059000000     3.658000000
H    -1.773000000     4.758000000     3.729000000
H    -0.290000000     4.316000000     4.499000000
C    -1.517000000     2.656000000     3.767000000
C    -2.858000000     2.341000000     3.643000000
H    -3.465000000     3.136000000     3.217000000
C    -0.705000000     1.649000000     4.244000000
C    -1.157000000     0.333000000     4.360000000
H    -0.402000000    -0.429000000     4.536000000
C    -2.450000000    -0.007000000     3.999000000
O    -2.606000000    -1.394000000     3.833000000
C    -2.543000000    -1.930000000     2.526000000
C    -1.743000000    -3.215000000     2.361000000
C    -2.198000000    -4.243000000     1.629000000
H    -3.127000000    -4.143000000     1.073000000
C    -0.512000000    -3.363000000     2.956000000
H    -0.115000000    -2.497000000     3.478000000
O    -3.948000000    -2.054000000     2.126000000
H    -2.142000000    -1.265000000     1.748000000
C    -3.335000000     1.003000000     3.690000000
C    -4.792000000     0.620000000     3.222000000
H    -5.489000000     1.432000000     3.444000000
H    -5.032000000    -0.261000000     3.821000000
C    -4.760000000     0.272000000     1.686000000
C    -4.958000000     1.275000000     0.748000000
H    -5.126000000     2.316000000     1.010000000
C    -4.425000000    -1.073000000     1.244000000
C    -4.370000000    -1.327000000    -0.107000000
H    -4.122000000    -2.345000000    -0.396000000
C    -4.561000000    -0.340000000    -1.016000000
O    -4.445000000    -0.697000000    -2.328000000
C    -3.089000000    -0.487000000    -2.861000000
C    -2.473000000    -1.662000000    -3.624000000
C    -2.938000000    -2.963000000    -3.396000000
H    -3.833000000    -3.113000000    -2.798000000
C    -1.398000000    -1.453000000    -4.481000000
H    -0.940000000    -0.468000000    -4.494000000
O    -3.184000000     0.657000000    -3.754000000
H    -2.331000000    -0.152000000    -2.138000000
C    -4.794000000     0.976000000    -0.617000000
C    -4.943000000     2.042000000    -1.795000000
H    -5.462000000     2.971000000    -1.550000000
H    -5.479000000     1.646000000    -2.661000000
C    -3.546000000     2.536000000    -2.197000000
C    -2.795000000     1.850000000    -3.194000000
C    -1.605000000     2.404000000    -3.594000000
H    -1.033000000     1.939000000    -4.393000000
C    -1.087000000     3.534000000    -2.946000000
O     0.169000000     3.897000000    -3.238000000
C     1.133000000     3.566000000    -2.240000000
H     0.777000000     2.742000000    -1.604000000
C     2.387000000     2.874000000    -2.798000000
C     3.541000000     2.661000000    -2.053000000
H     3.644000000     2.988000000    -1.022000000
C     2.372000000     2.447000000    -4.088000000
H     1.512000000     2.628000000    -4.728000000
C     3.443000000     1.790000000    -4.680000000
O     3.362000000     1.298000000    -5.935000000
C     4.533000000     1.497000000    -3.874000000
H     5.395000000     0.938000000    -4.230000000
C     4.614000000     1.992000000    -2.590000000
O     5.698000000     1.627000000    -1.779000000
C     6.163000000     2.273000000    -0.674000000
C     5.986000000     1.580000000     0.430000000
H     5.429000000     0.648000000     0.483000000
C     7.006000000     3.398000000    -0.728000000
H     7.133000000     4.021000000    -1.609000000
C     7.725000000     3.791000000     0.371000000
H     8.350000000     4.678000000     0.310000000
C     7.542000000     3.048000000     1.571000000
H     8.057000000     3.435000000     2.447000000
C     6.658000000     1.982000000     1.610000000
O     6.409000000     1.305000000     2.839000000
C     5.262000000     1.052000000     3.518000000
C     5.241000000     0.003000000     4.386000000
H     6.185000000    -0.504000000     4.568000000
C     4.052000000    -0.476000000     4.895000000
O     4.117000000    -1.440000000     5.815000000
C     3.113000000    -2.353000000     5.899000000
C     2.664000000    -3.026000000     4.761000000
H     3.041000000    -2.747000000     3.780000000
C     2.599000000    -2.638000000     7.124000000
H     3.054000000    -2.171000000     7.993000000
C     1.523000000    -3.550000000     7.201000000
H     1.161000000    -3.866000000     8.177000000
C     1.004000000    -4.237000000     6.058000000
H     0.243000000    -5.009000000     6.126000000
C     1.692000000    -4.051000000     4.820000000
O     1.435000000    -4.701000000     3.654000000
C     0.271000000    -4.542000000     2.876000000
C    -0.229000000    -5.531000000     2.026000000
H     0.244000000    -6.494000000     1.850000000
C    -1.406000000    -5.310000000     1.315000000
O    -1.961000000    -6.408000000     0.633000000
C    -2.716000000    -6.515000000    -0.515000000
C    -2.513000000    -5.687000000    -1.604000000
H    -1.706000000    -4.960000000    -1.581000000
C    -3.723000000    -7.462000000    -0.563000000
H    -3.973000000    -8.045000000     0.320000000
C    -4.528000000    -7.617000000    -1.650000000
H    -5.269000000    -8.408000000    -1.736000000
C    -4.234000000    -6.834000000    -2.746000000
H    -4.656000000    -7.183000000    -3.685000000
C    -3.263000000    -5.868000000    -2.775000000
O    -2.892000000    -5.339000000    -3.998000000
C    -2.415000000    -4.093000000    -4.088000000
C    -1.423000000    -3.791000000    -5.037000000
H    -1.081000000    -4.661000000    -5.591000000
C    -0.882000000    -2.538000000    -5.269000000
O     0.328000000    -2.428000000    -5.935000000
C     0.679000000    -1.217000000    -6.513000000
C    -0.046000000    -0.678000000    -7.507000000
H    -0.903000000    -1.155000000    -7.977000000
C     0.303000000     0.654000000    -7.866000000
H    -0.198000000     1.163000000    -8.686000000
C     1.363000000     1.308000000    -7.292000000
H     1.696000000     2.283000000    -7.637000000
C     2.182000000     0.704000000    -6.339000000
C     1.831000000    -0.589000000    -5.983000000
H     2.504000000    -1.156000000    -5.345000000
C     1.752000000    -0.948000000     0.888000000
H     1.901000000    -1.361000000     1.882000000
C     0.590000000    -0.228000000     0.537000000
H    -0.229000000    -0.017000000     1.220000000
C     0.443000000     0.222000000    -0.767000000
H    -0.415000000     0.744000000    -1.203000000
C     1.446000000    -0.049000000    -1.680000000
H     1.179000000     0.219000000    -2.698000000
C     2.698000000    -0.656000000    -1.329000000
H     3.386000000    -0.736000000    -2.167000000
C     2.800000000    -1.186000000    -0.043000000
C     3.993000000    -2.083000000     0.229000000
O     4.710000000    -2.441000000    -0.681000000
O     4.263000000    -2.443000000     1.346000000
O     5.832000000    -3.636000000     3.351000000
H     5.607000000    -4.565000000     3.300000000
H     5.125000000    -3.192000000     2.883000000
O     1.333000000    -6.310000000    -0.934000000
H     2.036000000    -6.195000000    -0.295000000
H     0.961000000    -7.168000000    -0.729000000
O     6.269000000    -6.391000000    -3.128000000
H     5.739000000    -5.730000000    -2.682000000
H     5.653000000    -6.839000000    -3.708000000
O     9.806000000     0.591000000     1.671000000
H     8.854000000     0.508000000     1.717000000
H    10.125000000     0.116000000     2.438000000
O     4.588000000    -2.889000000    -3.881000000
H     4.847000000    -3.020000000    -2.969000000
H     3.632000000    -2.834000000    -3.852000000
O     9.048000000    -2.118000000    -3.192000000
H     8.165000000    -2.070000000    -3.559000000
H     9.031000000    -1.517000000    -2.447000000
O     6.830000000    -3.849000000     0.617000000
H     6.459000000    -3.952000000     1.494000000
H     6.099000000    -3.536000000     0.084000000
O     5.274000000    -6.026000000     2.413000000
H     5.509000000    -6.626000000     1.706000000
H     5.310000000    -6.563000000     3.205000000
O     9.319000000     0.020000000    -1.179000000
H     8.386000000    -0.181000000    -1.257000000
H     9.462000000     0.132000000    -0.239000000
O     8.237000000    -5.575000000    -1.030000000
H     7.829000000    -4.953000000    -0.427000000
H     7.502000000    -5.967000000    -1.502000000
O     1.786000000    -3.194000000    -3.600000000
H     1.062000000    -2.956000000    -4.180000000
H     1.392000000    -3.231000000    -2.728000000
O     6.822000000    -1.101000000    -1.469000000
H     6.295000000    -1.863000000    -1.228000000
H     6.193000000    -0.483000000    -1.843000000
O     7.195000000    -3.063000000     5.753000000
H     6.769000000    -3.449000000     4.987000000
H     6.602000000    -2.366000000     6.031000000
O     0.802000000    -3.555000000    -0.970000000
H     0.952000000    -3.131000000    -0.126000000
H     1.010000000    -4.477000000    -0.816000000
O     4.572000000    -4.739000000    -1.667000000
H     4.518000000    -3.845000000    -1.329000000
H     4.106000000    -5.268000000    -1.019000000
O     7.034000000    -2.857000000    -5.356000000
H     6.157000000    -2.737000000    -4.993000000
H     7.138000000    -2.134000000    -5.975000000
O     2.369000000    -5.773000000    -3.673000000
H     2.459000000    -4.825000000    -3.772000000
H     1.928000000    -5.885000000    -2.831000000
O     7.539000000    -1.388000000     1.748000000
H     6.716000000    -1.480000000     2.229000000
H     7.515000000    -2.089000000     1.097000000
O     3.226000000    -4.960000000     0.850000000
H     3.893000000    -5.398000000     1.378000000
H     3.373000000    -4.027000000     1.005000000
