215
-1461.84948
C     2.700000000    -1.541000000     3.620000000
H     1.752000000    -1.882000000     4.028000000
C     2.898000000    -0.215000000     3.259000000
C     4.103000000     0.172000000     2.769000000
H     4.257000000     1.220000000     2.527000000
C     1.769000000     0.758000000     3.345000000
O     0.919000000     0.476000000     4.501000000
H     1.244000000     0.660000000     2.384000000
O     2.220000000     2.141000000     3.362000000
C     1.610000000     3.138000000     2.640000000
C     2.212000000     3.623000000     1.504000000
H     3.209000000     3.328000000     1.186000000
C     1.520000000     4.459000000     0.677000000
O     2.097000000     4.724000000    -0.514000000
C     0.245000000     4.908000000     0.935000000
C    -0.618000000     5.754000000    -0.040000000
H    -1.375000000     6.393000000     0.419000000
C    -1.298000000     4.745000000    -0.946000000
C    -2.562000000     4.207000000    -0.566000000
H    -3.043000000     4.498000000     0.365000000
H     0.043000000     6.397000000    -0.625000000
C    -0.270000000     4.521000000     2.128000000
H    -1.199000000     4.996000000     2.432000000
C     0.349000000     3.616000000     2.967000000
C    -0.364000000     3.171000000     4.173000000
H    -1.113000000     3.924000000     4.430000000
H     0.326000000     3.140000000     5.019000000
C    -1.086000000     1.835000000     4.112000000
C    -2.468000000     1.740000000     3.738000000
H    -2.912000000     2.696000000     3.471000000
C    -0.443000000     0.595000000     4.374000000
C    -1.121000000    -0.606000000     4.463000000
H    -0.618000000    -1.564000000     4.564000000
C    -2.503000000    -0.622000000     4.159000000
O    -3.102000000    -1.824000000     4.046000000
C    -3.179000000    -2.325000000     2.642000000
C    -2.810000000    -3.735000000     2.363000000
C    -3.434000000    -4.419000000     1.322000000
H    -4.242000000    -3.948000000     0.769000000
C    -1.861000000    -4.375000000     3.173000000
H    -1.386000000    -3.852000000     3.999000000
O    -4.454000000    -1.958000000     2.005000000
H    -2.300000000    -1.883000000     2.149000000
C    -3.198000000     0.529000000     3.780000000
C    -4.669000000     0.505000000     3.415000000
H    -5.230000000     1.394000000     3.709000000
H    -5.128000000    -0.346000000     3.924000000
C    -4.722000000     0.456000000     1.901000000
C    -4.750000000     1.640000000     1.090000000
H    -4.823000000     2.678000000     1.404000000
C    -4.625000000    -0.746000000     1.249000000
C    -4.533000000    -0.872000000    -0.113000000
H    -4.260000000    -1.841000000    -0.524000000
C    -4.583000000     0.234000000    -0.902000000
O    -4.301000000     0.162000000    -2.252000000
C    -2.981000000     0.493000000    -2.695000000
C    -2.328000000    -0.532000000    -3.573000000
C    -2.467000000    -1.810000000    -3.200000000
H    -3.212000000    -2.034000000    -2.441000000
C    -1.335000000    -0.125000000    -4.474000000
H    -1.116000000     0.911000000    -4.724000000
O    -2.991000000     1.802000000    -3.301000000
H    -2.354000000     0.535000000    -1.792000000
C    -4.631000000     1.494000000    -0.294000000
C    -4.605000000     2.727000000    -1.132000000
H    -5.170000000     3.572000000    -0.731000000
H    -5.096000000     2.560000000    -2.093000000
C    -3.164000000     3.235000000    -1.436000000
C    -2.440000000     2.760000000    -2.549000000
C    -1.262000000     3.369000000    -2.925000000
H    -0.714000000     3.060000000    -3.811000000
C    -0.661000000     4.284000000    -2.116000000
O     0.620000000     4.634000000    -2.421000000
C     1.697000000     3.967000000    -1.686000000
H     1.283000000     3.024000000    -1.299000000
C     2.901000000     3.727000000    -2.612000000
C     4.067000000     3.184000000    -1.985000000
H     4.064000000     3.056000000    -0.905000000
C     2.784000000     3.570000000    -3.962000000
H     1.782000000     3.655000000    -4.375000000
C     3.821000000     3.069000000    -4.681000000
O     3.620000000     2.668000000    -5.956000000
C     4.995000000     2.709000000    -4.063000000
H     5.810000000     2.264000000    -4.628000000
C     5.190000000     2.728000000    -2.725000000
O     6.292000000     2.136000000    -2.148000000
C     6.560000000     2.120000000    -0.762000000
C     6.259000000     0.925000000    -0.055000000
H     5.747000000     0.094000000    -0.533000000
C     7.339000000     3.093000000    -0.154000000
H     7.658000000     3.942000000    -0.752000000
C     7.730000000     2.971000000     1.181000000
H     8.311000000     3.749000000     1.669000000
C     7.197000000     1.889000000     1.981000000
H     7.524000000     1.662000000     2.992000000
C     6.607000000     0.820000000     1.272000000
O     6.341000000    -0.391000000     1.947000000
C     5.153000000    -0.740000000     2.531000000
C     4.963000000    -2.048000000     2.957000000
H     5.774000000    -2.770000000     2.906000000
C     3.752000000    -2.466000000     3.491000000
O     3.653000000    -3.746000000     3.755000000
C     2.600000000    -4.385000000     4.465000000
C     1.640000000    -4.907000000     3.694000000
H     1.796000000    -5.001000000     2.623000000
C     2.566000000    -4.419000000     5.824000000
H     3.432000000    -3.987000000     6.319000000
C     1.499000000    -5.098000000     6.472000000
H     1.529000000    -5.177000000     7.555000000
C     0.426000000    -5.597000000     5.663000000
H    -0.491000000    -5.922000000     6.148000000
C     0.532000000    -5.483000000     4.217000000
O    -0.318000000    -6.247000000     3.422000000
C    -1.423000000    -5.659000000     2.837000000
C    -1.998000000    -6.345000000     1.773000000
H    -1.722000000    -7.372000000     1.548000000
C    -3.054000000    -5.716000000     1.044000000
O    -3.709000000    -6.426000000     0.043000000
C    -3.771000000    -5.972000000    -1.241000000
C    -2.774000000    -5.146000000    -1.802000000
H    -1.875000000    -4.866000000    -1.260000000
C    -4.924000000    -6.362000000    -1.963000000
H    -5.711000000    -6.891000000    -1.433000000
C    -5.059000000    -5.899000000    -3.244000000
H    -5.960000000    -6.211000000    -3.766000000
C    -4.059000000    -5.133000000    -3.886000000
H    -4.188000000    -4.837000000    -4.924000000
C    -2.953000000    -4.750000000    -3.157000000
O    -1.932000000    -4.099000000    -3.734000000
C    -1.768000000    -2.773000000    -3.914000000
C    -0.800000000    -2.491000000    -4.836000000
H    -0.238000000    -3.198000000    -5.440000000
C    -0.589000000    -1.096000000    -5.149000000
O     0.427000000    -0.882000000    -6.021000000
C     0.805000000     0.358000000    -6.349000000
C     0.082000000     1.110000000    -7.304000000
H    -0.830000000     0.664000000    -7.693000000
C     0.462000000     2.381000000    -7.713000000
H    -0.215000000     3.012000000    -8.283000000
C     1.599000000     2.912000000    -7.214000000
H     1.789000000     3.978000000    -7.315000000
C     2.475000000     2.109000000    -6.392000000
C     2.055000000     0.841000000    -5.953000000
H     2.765000000     0.307000000    -5.326000000
C     0.144000000    -1.397000000     0.284000000
H     0.045000000    -2.098000000     1.109000000
C    -0.237000000    -0.079000000     0.585000000
H    -0.623000000     0.159000000     1.572000000
C    -0.192000000     0.888000000    -0.353000000
H    -0.476000000     1.926000000    -0.176000000
C     0.302000000     0.604000000    -1.595000000
H     0.366000000     1.375000000    -2.359000000
C     0.827000000    -0.652000000    -1.899000000
H     1.363000000    -0.782000000    -2.835000000
C     0.820000000    -1.698000000    -0.905000000
C     1.545000000    -3.013000000    -1.141000000
O     2.059000000    -3.333000000    -2.176000000
O     1.696000000    -3.821000000    -0.181000000
O     2.020000000    -6.110000000    -1.058000000
H     1.780000000    -5.339000000    -0.545000000
H     1.743000000    -5.901000000    -1.950000000
O     2.914000000    -8.536000000    -1.336000000
H     2.908000000    -8.657000000    -2.285000000
H     2.666000000    -7.620000000    -1.210000000
O    -0.469000000    -6.948000000    -5.369000000
H     0.318000000    -6.461000000    -5.125000000
H    -0.826000000    -6.468000000    -6.116000000
O     1.479000000    -4.386000000    -8.143000000
H     1.920000000    -4.852000000    -8.854000000
H     2.077000000    -4.461000000    -7.400000000
O     6.442000000    -3.634000000     0.381000000
H     7.072000000    -4.344000000     0.260000000
H     5.663000000    -4.064000000     0.736000000
O     3.002000000    -1.931000000    -4.414000000
H     2.509000000    -2.179000000    -3.632000000
H     2.446000000    -2.205000000    -5.144000000
O     5.284000000    -0.574000000    -3.675000000
H     5.699000000    -1.198000000    -3.079000000
H     4.449000000    -0.982000000    -3.905000000
O     0.689000000    -8.445000000     0.652000000
H     1.288000000    -7.700000000     0.601000000
H     0.086000000    -8.319000000    -0.080000000
O     5.873000000    -5.862000000     2.819000000
H     5.237000000    -5.150000000     2.757000000
H     6.036000000    -6.119000000     1.912000000
O     1.935000000    -8.350000000     4.026000000
H     1.436000000    -9.031000000     3.574000000
H     1.415000000    -7.555000000     3.909000000
O     3.591000000    -4.938000000    -6.188000000
H     4.398000000    -5.235000000    -6.609000000
H     3.181000000    -5.740000000    -5.865000000
O     6.860000000    -1.773000000    -1.831000000
H     6.741000000    -2.220000000    -0.993000000
H     7.620000000    -2.201000000    -2.226000000
O     6.224000000    -3.245000000    -5.173000000
H     5.452000000    -3.650000000    -4.776000000
H     6.182000000    -2.329000000    -4.898000000
O     4.412000000    -4.683000000    -3.520000000
H     3.824000000    -4.401000000    -2.820000000
H     3.907000000    -4.557000000    -4.323000000
O     0.923000000    -5.257000000    -3.488000000
H     1.390000000    -4.559000000    -3.028000000
H     0.095000000    -4.856000000    -3.753000000
O    -0.675000000    -7.486000000    -1.744000000
H    -0.276000000    -8.199000000    -2.242000000
H    -0.219000000    -6.700000000    -2.044000000
O     7.072000000    -6.199000000    -3.524000000
H     7.804000000    -5.857000000    -4.036000000
H     6.495000000    -5.446000000    -3.398000000
O     3.924000000    -4.910000000     0.686000000
H     3.688000000    -5.718000000     0.230000000
H     3.196000000    -4.314000000     0.509000000
O     5.632000000    -8.485000000    -1.120000000
H     4.705000000    -8.406000000    -1.344000000
H     6.077000000    -7.896000000    -1.729000000
