215
-1436.54165
C     2.666000000    -1.375000000     3.397000000
H     1.668000000    -1.696000000     3.683000000
C     2.989000000    -0.038000000     3.278000000
C     4.163000000     0.313000000     2.691000000
H     4.398000000     1.332000000     2.393000000
C     1.894000000     1.015000000     3.613000000
O     1.134000000     0.680000000     4.837000000
H     1.226000000     1.002000000     2.739000000
O     2.376000000     2.436000000     3.743000000
C     1.829000000     3.410000000     2.922000000
C     2.334000000     3.670000000     1.671000000
H     3.366000000     3.377000000     1.491000000
C     1.620000000     4.501000000     0.788000000
O     2.210000000     4.723000000    -0.446000000
C     0.271000000     4.870000000     1.084000000
C    -0.579000000     5.717000000     0.180000000
H    -1.266000000     6.303000000     0.795000000
C    -1.259000000     4.768000000    -0.793000000
C    -2.520000000     4.278000000    -0.535000000
H    -3.075000000     4.632000000     0.330000000
H     0.024000000     6.471000000    -0.328000000
C    -0.256000000     4.491000000     2.264000000
H    -1.300000000     4.688000000     2.494000000
C     0.489000000     3.819000000     3.254000000
C    -0.148000000     3.361000000     4.535000000
H    -0.847000000     4.131000000     4.868000000
H     0.475000000     3.327000000     5.431000000
C    -0.878000000     2.004000000     4.372000000
C    -2.163000000     2.016000000     3.887000000
H    -2.695000000     2.905000000     3.558000000
C    -0.232000000     0.781000000     4.628000000
C    -0.935000000    -0.424000000     4.471000000
H    -0.536000000    -1.360000000     4.853000000
C    -2.186000000    -0.444000000     4.009000000
O    -2.741000000    -1.705000000     3.784000000
C    -2.996000000    -2.179000000     2.493000000
C    -3.009000000    -3.728000000     2.496000000
C    -3.566000000    -4.401000000     1.405000000
H    -4.179000000    -3.925000000     0.644000000
C    -1.930000000    -4.363000000     3.212000000
H    -1.330000000    -3.793000000     3.917000000
O    -4.287000000    -1.763000000     1.988000000
H    -2.231000000    -1.844000000     1.777000000
C    -2.831000000     0.763000000     3.694000000
C    -4.307000000     0.622000000     3.392000000
H    -4.810000000     1.497000000     3.809000000
H    -4.817000000    -0.193000000     3.909000000
C    -4.432000000     0.576000000     1.894000000
C    -4.600000000     1.721000000     1.095000000
H    -4.676000000     2.703000000     1.556000000
C    -4.377000000    -0.621000000     1.252000000
C    -4.359000000    -0.755000000    -0.098000000
H    -4.285000000    -1.704000000    -0.622000000
C    -4.349000000     0.344000000    -0.897000000
O    -4.157000000     0.162000000    -2.275000000
C    -2.884000000     0.523000000    -2.723000000
C    -2.215000000    -0.579000000    -3.556000000
C    -2.436000000    -1.944000000    -3.208000000
H    -3.073000000    -2.210000000    -2.368000000
C    -1.478000000    -0.269000000    -4.677000000
H    -1.413000000     0.787000000    -4.925000000
O    -2.932000000     1.854000000    -3.370000000
H    -2.355000000     0.671000000    -1.769000000
C    -4.595000000     1.595000000    -0.304000000
C    -4.636000000     2.860000000    -1.203000000
H    -5.280000000     3.632000000    -0.779000000
H    -5.010000000     2.624000000    -2.202000000
C    -3.206000000     3.397000000    -1.459000000
C    -2.479000000     2.875000000    -2.548000000
C    -1.192000000     3.313000000    -2.720000000
H    -0.606000000     2.927000000    -3.550000000
C    -0.633000000     4.286000000    -1.942000000
O     0.728000000     4.638000000    -2.188000000
C     1.729000000     3.915000000    -1.484000000
H     1.173000000     3.062000000    -1.068000000
C     2.890000000     3.337000000    -2.349000000
C     4.168000000     3.038000000    -1.761000000
H     4.460000000     3.357000000    -0.764000000
C     2.551000000     2.968000000    -3.665000000
H     1.564000000     3.059000000    -4.113000000
C     3.556000000     2.318000000    -4.387000000
O     3.347000000     2.051000000    -5.707000000
C     4.827000000     2.073000000    -3.935000000
H     5.647000000     1.800000000    -4.594000000
C     5.105000000     2.455000000    -2.648000000
O     6.455000000     2.433000000    -2.131000000
C     6.749000000     2.158000000    -0.809000000
C     6.363000000     0.977000000    -0.163000000
H     5.994000000     0.158000000    -0.775000000
C     7.454000000     3.155000000    -0.038000000
H     7.708000000     4.137000000    -0.429000000
C     7.790000000     2.875000000     1.291000000
H     8.372000000     3.592000000     1.865000000
C     7.319000000     1.719000000     1.982000000
H     7.393000000     1.653000000     3.064000000
C     6.731000000     0.752000000     1.159000000
O     6.277000000    -0.449000000     1.703000000
C     5.055000000    -0.602000000     2.173000000
C     4.690000000    -1.904000000     2.276000000
H     5.325000000    -2.710000000     1.918000000
C     3.512000000    -2.331000000     2.915000000
O     3.117000000    -3.636000000     2.935000000
C     2.183000000    -4.192000000     3.756000000
C     1.218000000    -4.979000000     3.226000000
H     0.879000000    -4.918000000     2.195000000
C     2.485000000    -4.174000000     5.148000000
H     3.375000000    -3.643000000     5.477000000
C     1.680000000    -4.907000000     6.009000000
H     1.770000000    -4.889000000     7.093000000
C     0.742000000    -5.744000000     5.525000000
H     0.234000000    -6.426000000     6.201000000
C     0.443000000    -5.716000000     4.108000000
O    -0.646000000    -6.349000000     3.615000000
C    -1.646000000    -5.713000000     2.923000000
C    -2.411000000    -6.426000000     2.047000000
H    -2.199000000    -7.488000000     1.950000000
C    -3.297000000    -5.724000000     1.233000000
O    -3.912000000    -6.397000000     0.237000000
C    -3.872000000    -6.055000000    -1.106000000
C    -2.818000000    -5.347000000    -1.546000000
H    -1.995000000    -5.134000000    -0.868000000
C    -4.971000000    -6.280000000    -1.926000000
H    -5.860000000    -6.670000000    -1.438000000
C    -4.980000000    -5.850000000    -3.215000000
H    -5.843000000    -6.070000000    -3.837000000
C    -3.847000000    -5.162000000    -3.780000000
H    -3.813000000    -4.843000000    -4.819000000
C    -2.826000000    -4.918000000    -2.881000000
O    -1.747000000    -4.284000000    -3.423000000
C    -1.729000000    -2.957000000    -3.904000000
C    -0.911000000    -2.628000000    -5.045000000
H    -0.327000000    -3.406000000    -5.530000000
C    -0.821000000    -1.278000000    -5.403000000
O    -0.241000000    -1.053000000    -6.620000000
C     0.384000000     0.159000000    -6.840000000
C    -0.201000000     1.088000000    -7.653000000
H    -1.162000000     0.917000000    -8.132000000
C     0.249000000     2.394000000    -7.742000000
H    -0.288000000     3.082000000    -8.391000000
C     1.432000000     2.768000000    -6.999000000
H     1.710000000     3.815000000    -6.910000000
C     2.153000000     1.770000000    -6.302000000
C     1.628000000     0.433000000    -6.283000000
H     2.171000000    -0.320000000    -5.717000000
C     0.247000000    -2.132000000     0.515000000
H     0.505000000    -2.776000000     1.352000000
C    -0.141000000    -0.821000000     0.774000000
H    -0.254000000    -0.503000000     1.807000000
C    -0.128000000     0.224000000    -0.111000000
H    -0.378000000     1.163000000     0.290000000
C     0.270000000    -0.047000000    -1.386000000
H     0.427000000     0.748000000    -2.111000000
C     0.634000000    -1.329000000    -1.718000000
H     1.085000000    -1.444000000    -2.701000000
C     0.663000000    -2.368000000    -0.791000000
C     1.277000000    -3.664000000    -1.230000000
O     1.611000000    -3.861000000    -2.346000000
O     1.368000000    -4.577000000    -0.464000000
O     0.762000000    -7.023000000    -0.785000000
H     1.186000000    -6.195000000    -0.561000000
H     0.430000000    -6.891000000    -1.672000000
O     7.330000000    -4.344000000    -2.697000000
H     6.423000000    -4.648000000    -2.733000000
H     7.810000000    -4.956000000    -3.254000000
O     1.624000000    -9.949000000    -1.410000000
H     1.672000000    -9.600000000    -2.301000000
H     0.841000000    -9.545000000    -1.037000000
O    -0.973000000    -7.832000000    -5.858000000
H    -0.197000000    -7.965000000    -5.313000000
H    -0.730000000    -7.120000000    -6.450000000
O     6.676000000    -4.635000000     1.844000000
H     7.398000000    -5.131000000     1.459000000
H     6.224000000    -5.265000000     2.404000000
O     3.427000000    -2.099000000    -3.684000000
H     2.718000000    -2.627000000    -3.318000000
H     3.478000000    -1.335000000    -3.109000000
O     1.996000000    -9.051000000    -4.609000000
H     2.896000000    -9.279000000    -4.379000000
H     2.084000000    -8.364000000    -5.270000000
O     6.282000000    -1.794000000    -3.713000000
H     6.675000000    -2.534000000    -3.251000000
H     5.383000000    -2.072000000    -3.890000000
O     2.703000000    -7.148000000    -6.415000000
H     2.305000000    -6.875000000    -7.242000000
H     3.631000000    -6.936000000    -6.515000000
O    -0.679000000    -8.840000000     0.135000000
H    -0.104000000    -8.129000000    -0.148000000
H    -1.502000000    -8.680000000    -0.328000000
O     0.824000000    -8.711000000     2.628000000
H     0.159000000    -8.839000000     1.951000000
H     1.433000000    -8.077000000     2.248000000
O     2.541000000    -4.396000000    -6.019000000
H     2.109000000    -5.110000000    -5.549000000
H     2.289000000    -3.607000000    -5.539000000
O     7.405000000    -3.061000000    -0.267000000
H     7.189000000    -3.625000000     0.476000000
H     7.145000000    -3.568000000    -1.036000000
O     5.162000000    -4.295000000    -4.499000000
H     4.730000000    -4.717000000    -3.756000000
H     4.525000000    -3.653000000    -4.813000000
O     3.819000000    -5.440000000    -2.289000000
H     3.101000000    -4.807000000    -2.266000000
H     4.082000000    -5.536000000    -1.373000000
O     0.848000000    -6.094000000    -3.905000000
H     1.376000000    -5.411000000    -3.492000000
H     0.032000000    -5.654000000    -4.144000000
O     5.265000000    -7.360000000    -3.743000000
H     5.462000000    -7.021000000    -4.617000000
H     4.494000000    -6.867000000    -3.463000000
O     3.650000000    -5.571000000     0.562000000
H     3.752000000    -5.157000000     1.419000000
H     2.814000000    -5.240000000     0.233000000
O     4.275000000    -8.322000000     1.301000000
H     4.108000000    -8.855000000     0.524000000
H     4.060000000    -7.429000000     1.030000000
