215
-1455.95988
C     3.031000000    -1.567000000     4.469000000
H     2.153000000    -1.893000000     5.021000000
C     3.137000000    -0.213000000     4.120000000
C     4.274000000     0.215000000     3.447000000
H     4.197000000     1.188000000     2.969000000
C     1.902000000     0.623000000     4.063000000
O     0.956000000     0.356000000     5.104000000
H     1.358000000     0.222000000     3.195000000
O     2.168000000     1.993000000     4.169000000
C     1.424000000     2.856000000     3.397000000
C     1.899000000     3.256000000     2.139000000
H     2.838000000     2.906000000     1.717000000
C     1.085000000     4.043000000     1.336000000
O     1.636000000     4.331000000     0.091000000
C    -0.228000000     4.481000000     1.678000000
C    -1.106000000     5.294000000     0.729000000
H    -1.960000000     5.773000000     1.213000000
C    -1.743000000     4.502000000    -0.491000000
C    -3.022000000     3.996000000    -0.279000000
H    -3.539000000     4.155000000     0.664000000
H    -0.527000000     6.173000000     0.438000000
C    -0.620000000     4.151000000     3.000000000
H    -1.642000000     4.421000000     3.255000000
C     0.173000000     3.333000000     3.866000000
C    -0.500000000     2.765000000     5.089000000
H    -1.195000000     3.540000000     5.419000000
H     0.132000000     2.650000000     5.971000000
C    -1.109000000     1.451000000     4.726000000
C    -2.416000000     1.342000000     4.171000000
H    -3.062000000     2.214000000     4.111000000
C    -0.361000000     0.270000000     4.745000000
C    -0.891000000    -0.926000000     4.288000000
H    -0.247000000    -1.802000000     4.303000000
C    -2.170000000    -1.053000000     3.761000000
O    -2.592000000    -2.315000000     3.438000000
C    -2.506000000    -2.621000000     1.987000000
C    -2.062000000    -4.074000000     1.754000000
C    -2.357000000    -4.630000000     0.529000000
H    -3.099000000    -4.143000000    -0.098000000
C    -1.042000000    -4.577000000     2.570000000
H    -0.703000000    -4.035000000     3.448000000
O    -3.783000000    -2.431000000     1.414000000
H    -1.850000000    -1.912000000     1.462000000
C    -2.939000000     0.086000000     3.715000000
C    -4.408000000    -0.137000000     3.176000000
H    -5.127000000     0.613000000     3.513000000
H    -4.864000000    -1.058000000     3.544000000
C    -4.473000000    -0.046000000     1.641000000
C    -4.900000000     1.133000000     1.033000000
H    -5.004000000     1.922000000     1.773000000
C    -4.186000000    -1.202000000     0.936000000
C    -4.158000000    -1.105000000    -0.456000000
H    -3.859000000    -1.881000000    -1.157000000
C    -4.507000000     0.103000000    -1.095000000
O    -4.258000000     0.098000000    -2.418000000
C    -3.063000000     0.726000000    -2.952000000
C    -2.389000000    -0.015000000    -4.092000000
C    -2.120000000    -1.343000000    -3.891000000
H    -2.498000000    -1.843000000    -3.003000000
C    -1.794000000     0.646000000    -5.121000000
H    -1.886000000     1.712000000    -5.309000000
O    -3.329000000     2.078000000    -3.402000000
H    -2.278000000     0.776000000    -2.183000000
C    -4.906000000     1.255000000    -0.370000000
C    -5.004000000     2.613000000    -1.003000000
H    -5.673000000     3.204000000    -0.374000000
H    -5.521000000     2.564000000    -1.964000000
C    -3.649000000     3.228000000    -1.299000000
C    -3.000000000     3.081000000    -2.525000000
C    -1.773000000     3.660000000    -2.773000000
H    -1.220000000     3.396000000    -3.671000000
C    -1.093000000     4.294000000    -1.715000000
O     0.261000000     4.624000000    -1.891000000
C     1.121000000     3.746000000    -1.085000000
H     0.576000000     2.875000000    -0.694000000
C     2.186000000     3.229000000    -2.068000000
C     3.325000000     2.642000000    -1.535000000
H     3.519000000     2.641000000    -0.465000000
C     2.136000000     3.450000000    -3.459000000
H     1.292000000     3.974000000    -3.898000000
C     3.239000000     3.053000000    -4.291000000
O     3.166000000     3.252000000    -5.656000000
C     4.317000000     2.389000000    -3.734000000
H     5.157000000     1.995000000    -4.301000000
C     4.421000000     2.272000000    -2.394000000
O     5.506000000     1.632000000    -1.906000000
C     5.920000000     1.750000000    -0.556000000
C     5.847000000     0.644000000     0.283000000
H     5.368000000    -0.267000000    -0.067000000
C     6.504000000     2.960000000    -0.185000000
H     6.473000000     3.806000000    -0.867000000
C     7.027000000     3.120000000     1.100000000
H     7.385000000     4.090000000     1.436000000
C     6.967000000     2.010000000     1.953000000
H     7.484000000     2.058000000     2.908000000
C     6.369000000     0.836000000     1.582000000
O     6.353000000    -0.303000000     2.356000000
C     5.264000000    -0.726000000     3.114000000
C     5.199000000    -1.984000000     3.652000000
H     5.980000000    -2.680000000     3.359000000
C     4.086000000    -2.473000000     4.306000000
O     4.014000000    -3.824000000     4.535000000
C     2.882000000    -4.592000000     4.823000000
C     2.134000000    -5.164000000     3.739000000
H     2.543000000    -5.019000000     2.742000000
C     2.608000000    -4.942000000     6.113000000
H     3.270000000    -4.774000000     6.958000000
C     1.475000000    -5.788000000     6.347000000
H     1.219000000    -6.181000000     7.327000000
C     0.587000000    -6.183000000     5.328000000
H    -0.315000000    -6.765000000     5.499000000
C     1.005000000    -5.918000000     3.999000000
O     0.243000000    -6.505000000     3.018000000
C    -0.512000000    -5.824000000     2.203000000
C    -0.826000000    -6.440000000     0.989000000
H    -0.268000000    -7.307000000     0.647000000
C    -1.727000000    -5.825000000     0.159000000
O    -2.152000000    -6.505000000    -0.954000000
C    -2.594000000    -5.779000000    -2.100000000
C    -1.737000000    -4.871000000    -2.744000000
H    -0.790000000    -4.752000000    -2.226000000
C    -3.781000000    -6.128000000    -2.704000000
H    -4.241000000    -7.056000000    -2.374000000
C    -4.303000000    -5.417000000    -3.761000000
H    -5.257000000    -5.738000000    -4.169000000
C    -3.524000000    -4.379000000    -4.267000000
H    -3.881000000    -3.843000000    -5.143000000
C    -2.205000000    -4.255000000    -3.895000000
O    -1.227000000    -3.477000000    -4.529000000
C    -1.474000000    -2.166000000    -4.806000000
C    -1.071000000    -1.523000000    -5.948000000
H    -0.618000000    -2.054000000    -6.782000000
C    -1.122000000    -0.137000000    -6.041000000
O    -0.541000000     0.426000000    -7.187000000
C     0.112000000     1.673000000    -7.149000000
C    -0.239000000     2.720000000    -7.993000000
H    -1.115000000     2.629000000    -8.629000000
C     0.410000000     3.985000000    -7.872000000
H     0.056000000     4.843000000    -8.436000000
C     1.488000000     4.208000000    -7.033000000
H     1.991000000     5.171000000    -7.074000000
C     1.962000000     3.113000000    -6.301000000
C     1.269000000     1.872000000    -6.375000000
H     1.622000000     1.005000000    -5.822000000
C     1.213000000    -1.444000000     0.013000000
H     1.412000000    -2.064000000     0.884000000
C     0.584000000    -0.274000000     0.184000000
H     0.223000000     0.026000000     1.164000000
C     0.143000000     0.498000000    -0.913000000
H    -0.618000000     1.302000000    -0.826000000
C     0.457000000     0.081000000    -2.209000000
H     0.003000000     0.655000000    -3.012000000
C     1.244000000    -1.068000000    -2.351000000
H     1.383000000    -1.329000000    -3.397000000
C     1.575000000    -1.866000000    -1.288000000
C     2.357000000    -3.168000000    -1.441000000
O     2.548000000    -3.666000000    -2.555000000
O     2.772000000    -3.802000000    -0.448000000
O     2.954000000    -6.453000000     0.675000000
H     3.228000000    -5.542000000     0.566000000
H     2.050000000    -6.470000000     0.362000000
O     5.654000000    -5.086000000    -6.897000000
H     5.657000000    -4.627000000    -6.057000000
H     4.787000000    -5.488000000    -6.948000000
O     7.785000000    -4.513000000    -1.669000000
H     7.837000000    -3.569000000    -1.822000000
H     8.102000000    -4.628000000    -0.774000000
O     3.362000000    -2.952000000    -5.770000000
H     2.721000000    -3.656000000    -5.871000000
H     3.387000000    -2.784000000    -4.828000000
O     7.038000000    -4.402000000    -4.342000000
H     6.306000000    -3.883000000    -4.010000000
H     7.288000000    -4.963000000    -3.607000000
O     5.130000000    -2.912000000    -3.314000000
H     5.715000000    -2.476000000    -2.694000000
H     4.422000000    -3.259000000    -2.771000000
O     5.025000000    -1.643000000    -7.227000000
H     4.489000000    -2.001000000    -6.519000000
H     4.459000000    -1.000000000    -7.654000000
O     7.191000000    -1.970000000    -1.759000000
H     7.275000000    -1.775000000    -0.825000000
H     7.825000000    -1.391000000    -2.182000000
O     1.265000000    -4.659000000    -4.813000000
H     0.381000000    -4.490000000    -5.140000000
H     1.303000000    -4.197000000    -3.976000000
O     8.121000000    -2.457000000     0.798000000
H     7.167000000    -2.535000000     0.814000000
H     8.423000000    -3.075000000     1.464000000
O    -0.501000000    -7.284000000    -4.976000000
H    -1.097000000    -7.093000000    -5.700000000
H     0.308000000    -6.826000000    -5.205000000
O     3.831000000    -6.241000000    -3.831000000
H     3.156000000    -5.594000000    -4.034000000
H     4.239000000    -5.917000000    -3.028000000
O     5.108000000    -5.225000000    -1.608000000
H     4.867000000    -5.076000000    -0.694000000
H     6.052000000    -5.383000000    -1.584000000
O     7.288000000    -0.903000000    -4.874000000
H     6.524000000    -1.454000000    -5.044000000
H     7.494000000    -1.057000000    -3.952000000
O     1.386000000    -6.372000000    -1.579000000
H     1.354000000    -6.646000000    -2.496000000
H     1.867000000    -5.545000000    -1.593000000
O     3.395000000    -8.997000000    -0.049000000
H     3.294000000    -8.118000000     0.317000000
H     2.880000000    -9.558000000     0.530000000
O     4.076000000    -8.870000000    -2.779000000
H     3.743000000    -7.980000000    -2.893000000
H     3.882000000    -9.084000000    -1.866000000
O     4.932000000    -2.662000000     0.284000000
H     4.647000000    -2.199000000     1.071000000
H     4.164000000    -3.165000000     0.011000000
O     5.560000000    -7.131000000     1.963000000
H     4.626000000    -7.315000000     2.059000000
H     5.792000000    -6.652000000     2.759000000
