215
-1439.85301
C     2.806000000    -1.668000000     3.824000000
H     1.909000000    -2.152000000     4.203000000
C     2.859000000    -0.277000000     3.739000000
C     4.068000000     0.252000000     3.269000000
H     4.212000000     1.325000000     3.169000000
C     1.696000000     0.606000000     3.813000000
O     0.799000000     0.292000000     4.865000000
H     1.193000000     0.430000000     2.851000000
O     1.989000000     1.953000000     3.963000000
C     1.296000000     2.888000000     3.187000000
C     1.959000000     3.508000000     2.120000000
H     2.975000000     3.191000000     1.901000000
C     1.308000000     4.311000000     1.168000000
O     1.910000000     4.596000000    -0.028000000
C     0.033000000     4.725000000     1.545000000
C    -0.823000000     5.508000000     0.580000000
H    -1.431000000     6.229000000     1.130000000
C    -1.598000000     4.695000000    -0.490000000
C    -2.813000000     4.054000000    -0.241000000
H    -3.302000000     4.183000000     0.721000000
H    -0.111000000     6.162000000     0.073000000
C    -0.626000000     4.146000000     2.654000000
H    -1.656000000     4.432000000     2.849000000
C     0.018000000     3.303000000     3.483000000
C    -0.790000000     2.855000000     4.633000000
H    -1.567000000     3.562000000     4.933000000
H    -0.166000000     2.805000000     5.528000000
C    -1.384000000     1.452000000     4.386000000
C    -2.657000000     1.342000000     3.933000000
H    -3.225000000     2.242000000     3.712000000
C    -0.558000000     0.307000000     4.570000000
C    -1.097000000    -0.920000000     4.246000000
H    -0.584000000    -1.877000000     4.302000000
C    -2.421000000    -1.081000000     3.920000000
O    -2.870000000    -2.410000000     3.645000000
C    -2.812000000    -2.727000000     2.205000000
C    -2.285000000    -4.133000000     1.943000000
C    -2.526000000    -4.850000000     0.758000000
H    -3.152000000    -4.421000000    -0.019000000
C    -1.408000000    -4.692000000     2.893000000
H    -1.188000000    -4.166000000     3.819000000
O    -4.050000000    -2.482000000     1.472000000
H    -2.000000000    -2.132000000     1.761000000
C    -3.287000000     0.001000000     3.774000000
C    -4.712000000    -0.135000000     3.215000000
H    -5.277000000     0.715000000     3.602000000
H    -5.262000000    -1.012000000     3.562000000
C    -4.514000000    -0.158000000     1.708000000
C    -4.663000000     1.111000000     1.058000000
H    -4.615000000     1.981000000     1.709000000
C    -4.324000000    -1.285000000     0.908000000
C    -4.325000000    -1.160000000    -0.487000000
H    -4.216000000    -2.054000000    -1.096000000
C    -4.539000000     0.033000000    -1.078000000
O    -4.356000000     0.110000000    -2.446000000
C    -3.079000000     0.702000000    -2.819000000
C    -2.400000000    -0.195000000    -3.851000000
C    -2.169000000    -1.582000000    -3.526000000
H    -2.694000000    -1.940000000    -2.644000000
C    -1.883000000     0.276000000    -5.029000000
H    -2.018000000     1.307000000    -5.346000000
O    -3.237000000     2.090000000    -3.261000000
H    -2.351000000     0.529000000    -2.013000000
C    -4.710000000     1.198000000    -0.298000000
C    -4.792000000     2.577000000    -0.863000000
H    -5.409000000     3.234000000    -0.246000000
H    -5.373000000     2.373000000    -1.764000000
C    -3.468000000     3.259000000    -1.195000000
C    -2.838000000     3.072000000    -2.427000000
C    -1.551000000     3.553000000    -2.674000000
H    -1.101000000     3.305000000    -3.632000000
C    -0.950000000     4.433000000    -1.731000000
O     0.354000000     4.852000000    -1.917000000
C     1.339000000     4.108000000    -1.278000000
H     0.753000000     3.253000000    -0.909000000
C     2.444000000     3.647000000    -2.217000000
C     3.632000000     3.119000000    -1.687000000
H     3.724000000     2.815000000    -0.647000000
C     2.203000000     3.641000000    -3.616000000
H     1.257000000     4.008000000    -4.006000000
C     3.261000000     3.333000000    -4.476000000
O     3.115000000     3.308000000    -5.822000000
C     4.459000000     2.866000000    -3.877000000
H     5.267000000     2.554000000    -4.534000000
C     4.604000000     2.578000000    -2.519000000
O     5.752000000     1.968000000    -2.052000000
C     6.235000000     2.013000000    -0.737000000
C     5.947000000     0.981000000     0.248000000
H     5.305000000     0.137000000     0.010000000
C     7.061000000     3.050000000    -0.361000000
H     7.239000000     3.874000000    -1.047000000
C     7.448000000     3.155000000     0.934000000
H     8.032000000     4.030000000     1.206000000
C     7.123000000     2.245000000     1.947000000
H     7.522000000     2.412000000     2.944000000
C     6.445000000     1.088000000     1.535000000
O     6.313000000     0.024000000     2.472000000
C     5.152000000    -0.591000000     2.872000000
C     5.063000000    -1.966000000     3.070000000
H     5.883000000    -2.653000000     2.881000000
C     3.853000000    -2.524000000     3.501000000
O     3.817000000    -3.836000000     3.756000000
C     2.838000000    -4.555000000     4.342000000
C     1.840000000    -5.223000000     3.679000000
H     1.809000000    -5.165000000     2.594000000
C     2.768000000    -4.400000000     5.779000000
H     3.661000000    -3.992000000     6.246000000
C     1.806000000    -5.090000000     6.490000000
H     1.738000000    -5.182000000     7.571000000
C     0.777000000    -5.794000000     5.753000000
H     0.027000000    -6.358000000     6.301000000
C     0.807000000    -5.900000000     4.362000000
O    -0.222000000    -6.553000000     3.676000000
C    -0.922000000    -5.965000000     2.677000000
C    -1.179000000    -6.655000000     1.507000000
H    -0.757000000    -7.648000000     1.384000000
C    -1.933000000    -6.096000000     0.510000000
O    -2.251000000    -6.777000000    -0.615000000
C    -2.573000000    -6.155000000    -1.789000000
C    -1.633000000    -5.275000000    -2.386000000
H    -0.610000000    -5.268000000    -2.020000000
C    -3.935000000    -6.199000000    -2.254000000
H    -4.590000000    -6.985000000    -1.888000000
C    -4.329000000    -5.360000000    -3.352000000
H    -5.351000000    -5.341000000    -3.721000000
C    -3.386000000    -4.503000000    -3.906000000
H    -3.670000000    -3.883000000    -4.753000000
C    -2.069000000    -4.464000000    -3.410000000
O    -1.108000000    -3.686000000    -4.025000000
C    -1.334000000    -2.365000000    -4.307000000
C    -0.804000000    -1.845000000    -5.479000000
H    -0.146000000    -2.415000000    -6.129000000
C    -0.977000000    -0.508000000    -5.756000000
O    -0.276000000     0.043000000    -6.817000000
C     0.211000000     1.368000000    -6.890000000
C    -0.292000000     2.123000000    -7.941000000
H    -1.031000000     1.674000000    -8.600000000
C     0.373000000     3.263000000    -8.247000000
H     0.200000000     3.633000000    -9.254000000
C     1.454000000     3.705000000    -7.502000000
H     1.993000000     4.585000000    -7.845000000
C     1.866000000     2.960000000    -6.383000000
C     1.235000000     1.783000000    -6.114000000
H     1.526000000     1.243000000    -5.217000000
C     0.223000000    -1.828000000    -0.223000000
H    -0.062000000    -2.593000000     0.494000000
C    -0.373000000    -0.559000000    -0.260000000
H    -1.168000000    -0.296000000     0.434000000
C     0.097000000     0.482000000    -1.104000000
H    -0.280000000     1.458000000    -1.111000000
C     1.035000000     0.215000000    -2.028000000
H     1.403000000     0.960000000    -2.729000000
C     1.630000000    -1.058000000    -2.028000000
H     2.345000000    -1.318000000    -2.804000000
C     1.295000000    -2.050000000    -1.107000000
C     1.891000000    -3.387000000    -1.251000000
O     2.717000000    -3.577000000    -2.100000000
O     1.575000000    -4.319000000    -0.512000000
O     1.661000000    -6.659000000    -1.487000000
H     1.617000000    -5.750000000    -1.192000000
H     1.596000000    -7.175000000    -0.683000000
O     7.978000000    -5.337000000    -1.877000000
H     7.077000000    -5.656000000    -1.928000000
H     8.510000000    -6.075000000    -2.175000000
O     1.446000000    -9.462000000    -0.043000000
H     1.809000000   -10.283000000    -0.377000000
H     0.543000000    -9.452000000    -0.362000000
O     2.571000000    -2.474000000    -6.976000000
H     2.431000000    -3.163000000    -7.625000000
H     2.818000000    -2.942000000    -6.179000000
O     6.785000000    -3.318000000    -5.845000000
H     6.051000000    -2.883000000    -5.411000000
H     7.483000000    -3.321000000    -5.190000000
O     5.072000000    -2.774000000    -3.916000000
H     4.335000000    -3.133000000    -3.422000000
H     5.430000000    -2.091000000    -3.348000000
O     4.377000000    -0.397000000    -6.826000000
H     3.632000000    -0.996000000    -6.814000000
H     4.364000000    -0.016000000    -7.704000000
O     7.717000000    -0.902000000    -3.413000000
H     7.811000000    -0.798000000    -2.466000000
H     8.328000000    -1.603000000    -3.639000000
O     2.077000000    -3.980000000    -4.643000000
H     1.575000000    -4.789000000    -4.741000000
H     2.097000000    -3.823000000    -3.699000000
O     6.770000000    -3.397000000     0.485000000
H     7.337000000    -4.042000000     0.908000000
H     6.973000000    -3.476000000    -0.448000000
O     0.273000000    -6.086000000    -5.064000000
H    -0.285000000    -5.648000000    -4.421000000
H    -0.330000000    -6.364000000    -5.754000000
O     8.737000000    -1.511000000     0.833000000
H     7.836000000    -1.817000000     0.732000000
H     8.840000000    -0.843000000     0.156000000
O     4.476000000    -5.469000000    -5.362000000
H     3.770000000    -4.846000000    -5.190000000
H     5.265000000    -5.033000000    -5.038000000
O     4.666000000    -5.498000000    -1.858000000
H     3.838000000    -5.069000000    -2.074000000
H     4.682000000    -5.517000000    -0.901000000
O     1.210000000    -8.103000000    -3.732000000
H     1.124000000    -7.722000000    -2.859000000
H     1.143000000    -7.357000000    -4.327000000
O     4.222000000    -8.185000000    -0.103000000
H     4.149000000    -7.474000000    -0.740000000
H     3.338000000    -8.548000000    -0.047000000
O     5.060000000    -7.359000000    -3.657000000
H     4.853000000    -6.882000000    -4.460000000
H     5.001000000    -6.700000000    -2.965000000
O     4.017000000    -5.026000000     0.665000000
H     4.376000000    -4.191000000     0.966000000
H     3.081000000    -4.860000000     0.558000000
O     5.745000000    -7.192000000     1.859000000
H     5.251000000    -7.642000000     1.174000000
H     5.250000000    -6.389000000     2.023000000
