215
-1479.91229
C     4.657000000    -1.082000000    -2.522000000
H     4.190000000    -2.056000000    -2.633000000
C     4.677000000    -0.462000000    -1.312000000
C     5.172000000     0.851000000    -1.299000000
H     5.265000000     1.384000000    -0.356000000
C     4.163000000    -1.161000000    -0.087000000
O     4.270000000    -2.633000000    -0.189000000
H     3.083000000    -0.979000000     0.014000000
O     4.899000000    -0.728000000     1.113000000
C     4.054000000    -0.338000000     2.113000000
C     3.550000000     0.911000000     2.170000000
H     3.844000000     1.638000000     1.417000000
C     2.734000000     1.301000000     3.203000000
O     2.430000000     2.651000000     3.299000000
C     2.246000000     0.347000000     4.142000000
C     1.269000000     0.706000000     5.311000000
H     1.475000000     0.121000000     6.210000000
C    -0.207000000     0.651000000     4.851000000
C    -0.933000000    -0.514000000     4.871000000
H    -0.577000000    -1.410000000     5.373000000
H     1.475000000     1.747000000     5.567000000
C     2.664000000    -0.943000000     3.974000000
H     2.223000000    -1.671000000     4.650000000
C     3.607000000    -1.317000000     3.028000000
C     3.969000000    -2.737000000     2.783000000
H     3.956000000    -3.213000000     3.766000000
H     5.029000000    -2.803000000     2.531000000
C     3.074000000    -3.418000000     1.755000000
C     1.906000000    -4.044000000     2.214000000
H     1.635000000    -4.143000000     3.262000000
C     3.216000000    -3.317000000     0.380000000
C     2.397000000    -3.928000000    -0.540000000
H     2.678000000    -3.850000000    -1.587000000
C     1.196000000    -4.500000000    -0.098000000
O     0.290000000    -4.930000000    -1.034000000
C    -0.889000000    -4.130000000    -1.110000000
C    -1.198000000    -3.919000000    -2.576000000
C    -2.500000000    -3.991000000    -3.102000000
H    -3.360000000    -4.351000000    -2.543000000
C    -0.183000000    -3.398000000    -3.368000000
H     0.763000000    -3.175000000    -2.880000000
O    -2.061000000    -4.533000000    -0.347000000
H    -0.668000000    -3.120000000    -0.734000000
C     0.963000000    -4.525000000     1.310000000
C    -0.315000000    -5.255000000     1.818000000
H    -0.120000000    -5.797000000     2.745000000
H    -0.350000000    -6.110000000     1.139000000
C    -1.473000000    -4.293000000     1.951000000
C    -1.774000000    -3.565000000     3.085000000
H    -1.086000000    -3.452000000     3.919000000
C    -2.340000000    -4.061000000     0.888000000
C    -3.356000000    -3.146000000     0.869000000
H    -3.898000000    -2.933000000    -0.048000000
C    -3.652000000    -2.387000000     1.977000000
O    -4.601000000    -1.300000000     1.912000000
C    -3.876000000    -0.049000000     1.700000000
C    -4.626000000     0.722000000     0.607000000
C    -5.086000000     0.097000000    -0.541000000
H    -5.044000000    -0.987000000    -0.613000000
C    -4.551000000     2.090000000     0.660000000
H    -4.355000000     2.553000000     1.624000000
O    -3.882000000     0.670000000     2.973000000
H    -2.861000000    -0.285000000     1.346000000
C    -2.916000000    -2.628000000     3.118000000
C    -3.069000000    -1.792000000     4.394000000
H    -2.697000000    -2.416000000     5.210000000
H    -4.090000000    -1.455000000     4.586000000
C    -2.245000000    -0.549000000     4.317000000
C    -2.729000000     0.593000000     3.703000000
C    -1.958000000     1.740000000     3.630000000
H    -2.332000000     2.627000000     3.125000000
C    -0.693000000     1.807000000     4.216000000
O     0.133000000     2.960000000     3.993000000
C     1.056000000     2.930000000     2.909000000
H     0.730000000     2.191000000     2.162000000
C     0.978000000     4.207000000     2.058000000
C     2.050000000     4.417000000     1.173000000
H     2.911000000     3.754000000     1.126000000
C    -0.122000000     5.049000000     2.088000000
H    -0.914000000     4.889000000     2.815000000
C    -0.146000000     6.149000000     1.226000000
O    -1.342000000     6.899000000     1.201000000
C     0.919000000     6.398000000     0.280000000
H     0.981000000     7.290000000    -0.339000000
C     2.038000000     5.554000000     0.371000000
O     2.999000000     5.808000000    -0.602000000
C     4.259000000     5.296000000    -0.676000000
C     4.593000000     4.251000000    -1.576000000
H     3.813000000     3.966000000    -2.278000000
C     5.249000000     5.957000000     0.056000000
H     5.079000000     6.841000000     0.665000000
C     6.578000000     5.410000000     0.068000000
H     7.368000000     5.910000000     0.623000000
C     6.890000000     4.325000000    -0.743000000
H     7.919000000     3.976000000    -0.755000000
C     5.921000000     3.811000000    -1.567000000
O     6.268000000     2.754000000    -2.387000000
C     5.600000000     1.552000000    -2.431000000
C     5.665000000     0.813000000    -3.645000000
H     6.034000000     1.376000000    -4.498000000
C     5.049000000    -0.426000000    -3.670000000
O     5.090000000    -1.178000000    -4.905000000
C     4.126000000    -2.180000000    -5.098000000
C     2.783000000    -1.777000000    -5.189000000
H     2.493000000    -0.729000000    -5.170000000
C     4.491000000    -3.468000000    -4.846000000
H     5.533000000    -3.690000000    -4.631000000
C     3.538000000    -4.471000000    -4.876000000
H     3.824000000    -5.516000000    -4.789000000
C     2.217000000    -4.129000000    -5.120000000
H     1.408000000    -4.840000000    -5.267000000
C     1.839000000    -2.814000000    -5.227000000
O     0.525000000    -2.489000000    -5.493000000
C    -0.439000000    -3.000000000    -4.686000000
C    -1.741000000    -2.952000000    -5.218000000
H    -2.049000000    -2.566000000    -6.186000000
C    -2.722000000    -3.417000000    -4.395000000
O    -4.052000000    -3.551000000    -4.860000000
C    -5.155000000    -2.923000000    -4.266000000
C    -5.009000000    -1.587000000    -3.947000000
H    -4.188000000    -0.988000000    -4.334000000
C    -6.269000000    -3.692000000    -3.944000000
H    -6.395000000    -4.741000000    -4.196000000
C    -7.263000000    -3.120000000    -3.164000000
H    -8.115000000    -3.671000000    -2.775000000
C    -7.122000000    -1.783000000    -2.778000000
H    -7.798000000    -1.266000000    -2.102000000
C    -5.962000000    -1.015000000    -3.141000000
O    -5.954000000     0.341000000    -2.823000000
C    -5.501000000     0.844000000    -1.641000000
C    -5.438000000     2.231000000    -1.628000000
H    -5.814000000     2.690000000    -2.539000000
C    -4.872000000     2.859000000    -0.525000000
O    -4.913000000     4.248000000    -0.510000000
C    -4.425000000     4.986000000     0.579000000
C    -5.199000000     5.322000000     1.669000000
H    -6.198000000     4.896000000     1.703000000
C    -4.617000000     6.124000000     2.640000000
H    -5.188000000     6.453000000     3.505000000
C    -3.337000000     6.712000000     2.481000000
H    -2.910000000     7.357000000     3.246000000
C    -2.548000000     6.285000000     1.404000000
C    -3.126000000     5.413000000     0.480000000
H    -2.534000000     5.074000000    -0.367000000
C    -1.182000000     0.023000000    -2.669000000
H    -1.876000000    -0.254000000    -3.458000000
C    -1.442000000    -0.329000000    -1.391000000
H    -2.378000000    -0.804000000    -1.107000000
C    -0.426000000    -0.122000000    -0.430000000
H    -0.507000000    -0.503000000     0.574000000
C     0.710000000     0.504000000    -0.772000000
H     1.516000000     0.606000000    -0.050000000
C     0.979000000     0.900000000    -2.070000000
H     1.948000000     1.208000000    -2.453000000
C    -0.002000000     0.667000000    -3.055000000
C     0.128000000     1.150000000    -4.511000000
O     1.221000000     1.496000000    -4.957000000
O    -0.867000000     1.306000000    -5.206000000
O     0.518000000     4.590000000    -2.314000000
H    -0.216000000     4.019000000    -2.090000000
H     0.713000000     5.060000000    -1.502000000
O     3.309000000     1.456000000    -6.844000000
H     2.747000000     1.663000000    -7.591000000
H     2.700000000     1.233000000    -6.140000000
O    -4.030000000    -0.644000000    -7.054000000
H    -4.577000000    -1.415000000    -7.203000000
H    -4.352000000     0.003000000    -7.682000000
O     0.869000000    -3.482000000    -8.326000000
H     1.821000000    -3.446000000    -8.416000000
H     0.679000000    -2.931000000    -7.567000000
O    -1.294000000     2.654000000    -0.833000000
H    -2.249000000     2.676000000    -0.775000000
H    -1.101000000     1.841000000    -1.299000000
O    -4.310000000     4.525000000    -5.251000000
H    -3.534000000     4.905000000    -4.840000000
H    -4.057000000     3.624000000    -5.453000000
O    -0.247000000    -0.129000000    -7.258000000
H     0.184000000    -0.743000000    -6.663000000
H    -0.596000000     0.554000000    -6.685000000
O     2.758000000     5.616000000    -6.763000000
H     2.744000000     4.983000000    -6.045000000
H     3.024000000     5.106000000    -7.527000000
O     2.304000000     4.062000000    -4.707000000
H     1.898000000     4.463000000    -3.939000000
H     2.044000000     3.141000000    -4.662000000
O    -1.510000000     6.092000000    -7.014000000
H    -2.167000000     6.432000000    -6.406000000
H    -1.241000000     5.256000000    -6.634000000
O     1.370000000     7.026000000    -4.099000000
H     0.908000000     6.359000000    -3.591000000
H     1.631000000     6.576000000    -4.903000000
O    -0.363000000     3.672000000    -6.369000000
H    -0.539000000     2.847000000    -5.916000000
H     0.450000000     3.513000000    -6.849000000
O     5.952000000     2.566000000    -6.617000000
H     6.697000000     2.003000000    -6.826000000
H     5.191000000     1.990000000    -6.682000000
O    -3.303000000     2.132000000    -6.185000000
H    -3.640000000     1.237000000    -6.150000000
H    -2.380000000     2.050000000    -5.945000000
O     5.095000000     4.630000000    -5.013000000
H     4.154000000     4.460000000    -5.067000000
H     5.494000000     3.940000000    -5.543000000
O     1.124000000     2.812000000    -8.436000000
H     0.171000000     2.724000000    -8.455000000
H     1.431000000     2.242000000    -9.141000000
O     0.853000000     0.241000000    -9.843000000
H     0.260000000     0.650000000   -10.474000000
H     0.287000000    -0.021000000    -9.117000000
O    -2.217000000     4.902000000    -3.567000000
H    -1.389000000     4.945000000    -4.046000000
H    -2.088000000     5.479000000    -2.814000000
O    -2.141000000     3.643000000    -9.063000000
H    -1.863000000     4.486000000    -8.704000000
H    -2.703000000     3.268000000    -8.385000000
