215
-1443.69474
C     3.191000000    -0.371000000     4.572000000
H     2.256000000    -0.869000000     4.813000000
C     3.161000000     0.881000000     3.991000000
C     4.355000000     1.297000000     3.439000000
H     4.302000000     2.310000000     3.047000000
C     1.809000000     1.643000000     3.716000000
O     0.875000000     1.313000000     4.806000000
H     1.342000000     1.148000000     2.852000000
O     1.930000000     3.020000000     3.646000000
C     1.115000000     3.563000000     2.653000000
C     1.640000000     3.640000000     1.364000000
H     2.615000000     3.233000000     1.108000000
C     0.945000000     4.280000000     0.329000000
O     1.517000000     4.453000000    -0.867000000
C    -0.426000000     4.682000000     0.598000000
C    -1.167000000     5.402000000    -0.528000000
H    -2.020000000     5.976000000    -0.159000000
C    -1.834000000     4.389000000    -1.494000000
C    -3.180000000     3.938000000    -1.298000000
H    -3.788000000     4.342000000    -0.492000000
H    -0.472000000     6.124000000    -0.959000000
C    -0.942000000     4.504000000     1.884000000
H    -1.960000000     4.866000000     1.994000000
C    -0.209000000     3.964000000     2.923000000
C    -0.862000000     3.650000000     4.256000000
H    -1.756000000     4.259000000     4.404000000
H    -0.225000000     3.689000000     5.142000000
C    -1.349000000     2.221000000     4.327000000
C    -2.701000000     2.019000000     3.901000000
H    -3.359000000     2.820000000     3.572000000
C    -0.535000000     1.177000000     4.590000000
C    -1.033000000    -0.170000000     4.487000000
H    -0.365000000    -0.998000000     4.709000000
C    -2.345000000    -0.407000000     4.084000000
O    -2.748000000    -1.713000000     3.905000000
C    -2.709000000    -2.195000000     2.540000000
C    -2.072000000    -3.611000000     2.370000000
C    -2.464000000    -4.430000000     1.278000000
H    -3.174000000    -4.023000000     0.562000000
C    -0.995000000    -4.029000000     3.159000000
H    -0.558000000    -3.334000000     3.872000000
O    -4.089000000    -2.213000000     2.062000000
H    -2.277000000    -1.422000000     1.888000000
C    -3.178000000     0.652000000     3.834000000
C    -4.593000000     0.370000000     3.225000000
H    -5.132000000     1.268000000     3.533000000
H    -5.135000000    -0.428000000     3.735000000
C    -4.599000000     0.108000000     1.711000000
C    -4.819000000     1.185000000     0.854000000
H    -4.884000000     2.208000000     1.213000000
C    -4.439000000    -1.169000000     1.207000000
C    -4.299000000    -1.361000000    -0.150000000
H    -4.098000000    -2.355000000    -0.541000000
C    -4.408000000    -0.317000000    -1.006000000
O    -4.207000000    -0.570000000    -2.400000000
C    -3.013000000    -0.090000000    -3.101000000
C    -2.487000000    -1.079000000    -4.133000000
C    -2.211000000    -2.408000000    -3.706000000
H    -2.574000000    -2.653000000    -2.711000000
C    -2.005000000    -0.593000000    -5.346000000
H    -1.942000000     0.461000000    -5.603000000
O    -3.241000000     1.183000000    -3.685000000
H    -2.188000000     0.005000000    -2.379000000
C    -4.714000000     0.950000000    -0.540000000
C    -4.874000000     2.160000000    -1.484000000
H    -5.380000000     2.974000000    -0.960000000
H    -5.295000000     1.941000000    -2.468000000
C    -3.588000000     2.821000000    -1.956000000
C    -2.793000000     2.297000000    -3.020000000
C    -1.546000000     2.850000000    -3.383000000
H    -1.038000000     2.413000000    -4.238000000
C    -1.077000000     3.816000000    -2.536000000
O     0.217000000     4.146000000    -2.727000000
C     1.199000000     3.470000000    -1.831000000
H     0.693000000     2.696000000    -1.235000000
C     2.469000000     2.876000000    -2.528000000
C     3.547000000     2.495000000    -1.758000000
H     3.607000000     2.553000000    -0.674000000
C     2.383000000     2.471000000    -3.834000000
H     1.540000000     2.809000000    -4.432000000
C     3.318000000     1.613000000    -4.398000000
O     3.217000000     1.043000000    -5.631000000
C     4.391000000     1.227000000    -3.616000000
H     5.075000000     0.520000000    -4.079000000
C     4.516000000     1.653000000    -2.285000000
O     5.569000000     1.155000000    -1.478000000
C     6.007000000     1.767000000    -0.322000000
C     6.264000000     0.954000000     0.791000000
H     6.129000000    -0.125000000     0.807000000
C     6.255000000     3.146000000    -0.252000000
H     6.136000000     3.779000000    -1.127000000
C     6.734000000     3.754000000     0.832000000
H     6.764000000     4.834000000     0.948000000
C     6.929000000     2.994000000     1.983000000
H     7.157000000     3.620000000     2.842000000
C     6.617000000     1.669000000     1.941000000
O     6.691000000     1.014000000     3.150000000
C     5.504000000     0.549000000     3.594000000
C     5.498000000    -0.684000000     4.251000000
H     6.428000000    -1.229000000     4.390000000
C     4.294000000    -1.232000000     4.636000000
O     4.334000000    -2.628000000     4.838000000
C     3.230000000    -3.322000000     5.251000000
C     2.748000000    -4.330000000     4.410000000
H     3.277000000    -4.475000000     3.472000000
C     2.592000000    -3.118000000     6.454000000
H     3.071000000    -2.380000000     7.092000000
C     1.443000000    -3.813000000     6.805000000
H     0.995000000    -3.923000000     7.789000000
C     0.847000000    -4.674000000     5.839000000
H    -0.078000000    -5.207000000     6.040000000
C     1.442000000    -4.872000000     4.560000000
O     0.841000000    -5.651000000     3.511000000
C    -0.337000000    -5.239000000     2.843000000
C    -0.880000000    -6.146000000     1.937000000
H    -0.530000000    -7.172000000     1.857000000
C    -1.979000000    -5.744000000     1.185000000
O    -2.482000000    -6.609000000     0.195000000
C    -2.680000000    -6.205000000    -1.098000000
C    -1.824000000    -5.419000000    -1.855000000
H    -0.950000000    -4.899000000    -1.470000000
C    -3.875000000    -6.670000000    -1.723000000
H    -4.488000000    -7.330000000    -1.113000000
C    -4.285000000    -6.241000000    -2.979000000
H    -5.221000000    -6.573000000    -3.421000000
C    -3.350000000    -5.502000000    -3.733000000
H    -3.518000000    -5.147000000    -4.747000000
C    -2.099000000    -5.129000000    -3.176000000
O    -1.154000000    -4.466000000    -3.993000000
C    -1.465000000    -3.245000000    -4.535000000
C    -1.031000000    -2.761000000    -5.791000000
H    -0.342000000    -3.326000000    -6.414000000
C    -1.289000000    -1.467000000    -6.149000000
O    -0.735000000    -1.010000000    -7.374000000
C     0.160000000     0.017000000    -7.373000000
C    -0.162000000     1.150000000    -8.066000000
H    -1.157000000     1.332000000    -8.464000000
C     0.688000000     2.250000000    -7.973000000
H     0.332000000     3.149000000    -8.469000000
C     1.790000000     2.249000000    -7.141000000
H     2.399000000     3.139000000    -7.005000000
C     2.077000000     1.098000000    -6.445000000
C     1.275000000    -0.007000000    -6.574000000
H     1.605000000    -0.893000000    -6.037000000
C     0.725000000    -1.855000000     0.053000000
H     0.944000000    -2.606000000     0.809000000
C     0.234000000    -0.632000000     0.476000000
H     0.027000000    -0.646000000     1.543000000
C    -0.019000000     0.338000000    -0.466000000
H    -0.521000000     1.189000000    -0.069000000
C     0.380000000     0.192000000    -1.777000000
H     0.215000000     0.913000000    -2.574000000
C     1.024000000    -0.988000000    -2.179000000
H     1.387000000    -1.243000000    -3.171000000
C     1.039000000    -2.041000000    -1.253000000
C     1.553000000    -3.365000000    -1.611000000
O     1.735000000    -3.498000000    -2.757000000
O     1.739000000    -4.242000000    -0.752000000
O     2.475000000    -6.058000000     0.908000000
H     2.347000000    -5.508000000     0.135000000
H     1.714000000    -5.878000000     1.459000000
O     0.548000000    -7.215000000    -6.403000000
H     0.453000000    -6.440000000    -6.957000000
H     0.105000000    -7.911000000    -6.887000000
O     3.096000000    -2.902000000    -6.221000000
H     2.401000000    -3.501000000    -5.947000000
H     3.421000000    -2.523000000    -5.404000000
O     6.561000000    -2.990000000    -5.374000000
H     5.774000000    -2.869000000    -4.842000000
H     6.240000000    -3.360000000    -6.196000000
O     3.978000000    -1.996000000    -3.899000000
H     4.672000000    -1.603000000    -3.371000000
H     3.298000000    -2.228000000    -3.266000000
O     4.331000000    -0.746000000    -7.547000000
H     3.851000000    -1.388000000    -7.024000000
H     4.545000000    -0.046000000    -6.929000000
O     2.776000000    -5.321000000    -7.670000000
H     2.777000000    -4.383000000    -7.864000000
H     2.474000000    -5.377000000    -6.763000000
O     6.190000000    -1.214000000    -2.437000000
H     6.219000000    -0.423000000    -1.899000000
H     6.835000000    -1.798000000    -2.040000000
O     6.397000000    -6.355000000    -2.488000000
H     6.732000000    -5.782000000    -3.178000000
H     5.818000000    -5.796000000    -1.972000000
O     1.722000000    -4.990000000    -5.055000000
H     1.233000000    -5.799000000    -4.904000000
H     1.638000000    -4.503000000    -4.235000000
O    -0.152000000    -9.694000000    -4.166000000
H     0.680000000   -10.064000000    -3.871000000
H     0.046000000    -8.777000000    -4.354000000
O     0.960000000    -6.814000000    -2.856000000
H     0.973000000    -5.972000000    -2.401000000
H     1.681000000    -7.308000000    -2.466000000
O     4.521000000    -4.505000000    -1.672000000
H     3.615000000    -4.329000000    -1.926000000
H     4.739000000    -3.805000000    -1.057000000
O    -0.291000000    -8.044000000    -0.907000000
H    -1.233000000    -7.924000000    -1.023000000
H     0.104000000    -7.538000000    -1.618000000
O     0.692000000    -9.893000000     0.761000000
H     0.630000000    -9.120000000     0.200000000
H     0.213000000    -9.653000000     1.554000000
O     3.187000000    -8.190000000    -1.603000000
H     4.085000000    -8.519000000    -1.585000000
H     2.758000000    -8.622000000    -0.864000000
O     4.721000000    -5.656000000    -4.962000000
H     3.811000000    -5.686000000    -5.259000000
H     4.772000000    -6.321000000    -4.276000000
O     4.023000000    -3.038000000     0.582000000
H     3.128000000    -3.213000000     0.290000000
H     4.343000000    -3.885000000     0.892000000
O     4.031000000    -8.203000000     1.120000000
H     3.367000000    -7.546000000     0.913000000
H     4.838000000    -7.701000000     1.233000000
