215
-1487.80354
C     3.293000000    -1.274000000     3.961000000
H     2.396000000    -1.720000000     4.384000000
C     3.356000000     0.066000000     3.628000000
C     4.575000000     0.533000000     3.079000000
H     4.612000000     1.595000000     2.847000000
C     2.101000000     0.975000000     3.770000000
O     1.357000000     0.600000000     4.910000000
H     1.467000000     0.706000000     2.911000000
O     2.480000000     2.370000000     3.759000000
C     1.764000000     3.278000000     3.024000000
C     2.289000000     3.721000000     1.824000000
H     3.194000000     3.279000000     1.416000000
C     1.577000000     4.519000000     0.944000000
O     2.101000000     4.589000000    -0.384000000
C     0.244000000     4.779000000     1.274000000
C    -0.731000000     5.494000000     0.292000000
H    -1.471000000     6.126000000     0.788000000
C    -1.525000000     4.520000000    -0.561000000
C    -2.788000000     4.081000000    -0.305000000
H    -3.340000000     4.453000000     0.554000000
H    -0.278000000     6.239000000    -0.364000000
C    -0.238000000     4.481000000     2.553000000
H    -1.177000000     4.867000000     2.942000000
C     0.487000000     3.656000000     3.430000000
C    -0.084000000     3.194000000     4.740000000
H    -0.709000000     3.971000000     5.187000000
H     0.714000000     3.071000000     5.476000000
C    -0.740000000     1.846000000     4.554000000
C    -2.089000000     1.789000000     4.186000000
H    -2.687000000     2.683000000     4.031000000
C    -0.019000000     0.678000000     4.720000000
C    -0.639000000    -0.535000000     4.448000000
H    -0.018000000    -1.424000000     4.528000000
C    -1.939000000    -0.606000000     4.077000000
O    -2.434000000    -1.873000000     3.732000000
C    -2.547000000    -2.137000000     2.379000000
C    -2.049000000    -3.509000000     2.066000000
C    -2.764000000    -4.233000000     1.093000000
H    -3.670000000    -3.912000000     0.585000000
C    -0.921000000    -4.104000000     2.610000000
H    -0.363000000    -3.423000000     3.247000000
O    -3.974000000    -1.955000000     2.095000000
H    -1.939000000    -1.459000000     1.761000000
C    -2.704000000     0.557000000     3.971000000
C    -4.221000000     0.548000000     3.582000000
H    -4.654000000     1.446000000     4.028000000
H    -4.717000000    -0.273000000     4.104000000
C    -4.427000000     0.344000000     2.042000000
C    -4.680000000     1.497000000     1.314000000
H    -4.678000000     2.497000000     1.739000000
C    -4.298000000    -0.851000000     1.351000000
C    -4.414000000    -0.967000000     0.002000000
H    -4.122000000    -1.883000000    -0.506000000
C    -4.641000000     0.169000000    -0.721000000
O    -4.508000000     0.106000000    -2.073000000
C    -3.283000000     0.465000000    -2.691000000
C    -2.918000000    -0.566000000    -3.745000000
C    -3.355000000    -1.919000000    -3.666000000
H    -4.074000000    -2.102000000    -2.871000000
C    -2.032000000    -0.193000000    -4.724000000
H    -1.690000000     0.837000000    -4.672000000
O    -3.302000000     1.845000000    -3.169000000
H    -2.528000000     0.392000000    -1.894000000
C    -4.747000000     1.450000000    -0.072000000
C    -4.817000000     2.776000000    -0.854000000
H    -5.516000000     3.469000000    -0.381000000
H    -5.387000000     2.556000000    -1.759000000
C    -3.388000000     3.222000000    -1.120000000
C    -2.766000000     2.767000000    -2.310000000
C    -1.579000000     3.303000000    -2.633000000
H    -1.080000000     2.989000000    -3.546000000
C    -0.926000000     4.176000000    -1.828000000
O     0.447000000     4.517000000    -2.073000000
C     1.465000000     3.764000000    -1.394000000
H     1.030000000     2.844000000    -0.977000000
C     2.521000000     3.174000000    -2.307000000
C     3.643000000     2.477000000    -1.834000000
H     3.828000000     2.597000000    -0.770000000
C     2.338000000     3.172000000    -3.720000000
H     1.406000000     3.557000000    -4.126000000
C     3.250000000     2.573000000    -4.572000000
O     3.023000000     2.614000000    -5.948000000
C     4.392000000     1.910000000    -4.072000000
H     5.103000000     1.497000000    -4.783000000
C     4.584000000     1.872000000    -2.701000000
O     5.646000000     1.128000000    -2.250000000
C     6.351000000     1.467000000    -1.100000000
C     6.209000000     0.710000000     0.073000000
H     5.528000000    -0.137000000     0.068000000
C     7.166000000     2.595000000    -1.053000000
H     7.275000000     3.281000000    -1.889000000
C     7.888000000     2.865000000     0.123000000
H     8.481000000     3.769000000     0.240000000
C     7.799000000     2.103000000     1.255000000
H     8.369000000     2.361000000     2.144000000
C     6.972000000     1.034000000     1.237000000
O     6.871000000     0.223000000     2.349000000
C     5.654000000    -0.256000000     2.855000000
C     5.618000000    -1.601000000     3.170000000
H     6.461000000    -2.255000000     2.963000000
C     4.383000000    -2.152000000     3.597000000
O     4.381000000    -3.507000000     3.765000000
C     3.241000000    -4.114000000     4.289000000
C     2.585000000    -4.968000000     3.449000000
H     2.958000000    -5.047000000     2.432000000
C     2.785000000    -3.896000000     5.587000000
H     3.327000000    -3.279000000     6.299000000
C     1.604000000    -4.512000000     6.037000000
H     1.259000000    -4.451000000     7.066000000
C     0.808000000    -5.246000000     5.122000000
H    -0.161000000    -5.653000000     5.402000000
C     1.342000000    -5.484000000     3.822000000
O     0.606000000    -6.050000000     2.780000000
C    -0.455000000    -5.376000000     2.323000000
C    -1.154000000    -6.018000000     1.306000000
H    -0.870000000    -7.015000000     0.980000000
C    -2.277000000    -5.448000000     0.728000000
O    -2.865000000    -6.221000000    -0.240000000
C    -3.652000000    -5.833000000    -1.294000000
C    -3.108000000    -4.941000000    -2.281000000
H    -2.102000000    -4.572000000    -2.097000000
C    -4.858000000    -6.437000000    -1.548000000
H    -5.213000000    -7.140000000    -0.799000000
C    -5.701000000    -6.180000000    -2.683000000
H    -6.683000000    -6.629000000    -2.810000000
C    -5.168000000    -5.342000000    -3.696000000
H    -5.764000000    -5.017000000    -4.545000000
C    -3.897000000    -4.742000000    -3.430000000
O    -3.342000000    -4.136000000    -4.519000000
C    -2.829000000    -2.909000000    -4.491000000
C    -1.893000000    -2.568000000    -5.496000000
H    -1.429000000    -3.267000000    -6.187000000
C    -1.454000000    -1.199000000    -5.577000000
O    -0.370000000    -0.930000000    -6.338000000
C     0.128000000     0.344000000    -6.532000000
C    -0.557000000     1.194000000    -7.419000000
H    -1.525000000     0.957000000    -7.855000000
C    -0.080000000     2.463000000    -7.776000000
H    -0.686000000     3.038000000    -8.471000000
C     1.159000000     2.905000000    -7.316000000
H     1.522000000     3.905000000    -7.538000000
C     1.892000000     2.049000000    -6.484000000
C     1.393000000     0.790000000    -6.116000000
H     1.942000000     0.162000000    -5.419000000
C     1.844000000    -0.540000000    -0.272000000
H     2.867000000    -0.879000000    -0.418000000
C     1.578000000     0.644000000     0.387000000
H     2.381000000     1.316000000     0.678000000
C     0.237000000     1.058000000     0.666000000
H     0.010000000     1.985000000     1.142000000
C    -0.789000000     0.287000000     0.207000000
H    -1.842000000     0.520000000     0.336000000
C    -0.505000000    -0.926000000    -0.396000000
H    -1.268000000    -1.565000000    -0.832000000
C     0.807000000    -1.324000000    -0.712000000
C     1.039000000    -2.604000000    -1.623000000
O     0.143000000    -3.237000000    -2.210000000
O     2.197000000    -3.132000000    -1.557000000
O     5.775000000    -2.770000000     0.348000000
H     5.029000000    -3.331000000     0.561000000
H     5.627000000    -2.510000000    -0.561000000
O     5.150000000    -5.962000000    -5.447000000
H     5.993000000    -5.558000000    -5.656000000
H     4.879000000    -5.541000000    -4.631000000
O     2.900000000    -6.616000000    -6.663000000
H     3.583000000    -6.259000000    -6.094000000
H     2.860000000    -7.545000000    -6.435000000
O    -1.136000000    -6.578000000    -5.784000000
H    -1.247000000    -6.595000000    -4.833000000
H    -0.454000000    -5.923000000    -5.933000000
O     1.685000000    -3.330000000    -4.426000000
H     1.154000000    -3.654000000    -5.154000000
H     1.131000000    -3.450000000    -3.655000000
O     7.439000000    -3.215000000    -2.993000000
H     7.153000000    -3.456000000    -3.874000000
H     6.649000000    -2.879000000    -2.568000000
O     1.395000000    -8.861000000    -3.508000000
H     1.799000000    -8.666000000    -2.663000000
H     0.525000000    -8.466000000    -3.455000000
O     4.014000000    -4.814000000    -3.152000000
H     3.276000000    -4.307000000    -2.813000000
H     4.376000000    -5.254000000    -2.383000000
O     3.253000000    -2.965000000    -8.411000000
H     3.558000000    -2.537000000    -7.611000000
H     3.076000000    -2.244000000    -9.015000000
O     4.783000000    -2.196000000    -2.158000000
H     4.474000000    -1.299000000    -2.033000000
H     3.983000000    -2.715000000    -2.244000000
O     5.113000000    -8.742000000    -1.717000000
H     5.811000000    -9.301000000    -2.060000000
H     5.183000000    -7.933000000    -2.223000000
O     3.377000000    -1.995000000    -5.791000000
H     2.624000000    -2.265000000    -5.265000000
H     4.098000000    -2.540000000    -5.475000000
O     0.831000000    -4.680000000    -6.720000000
H     1.621000000    -5.218000000    -6.771000000
H     0.627000000    -4.467000000    -7.631000000
O     2.553000000    -8.539000000    -0.939000000
H     2.388000000    -7.631000000    -0.682000000
H     3.466000000    -8.545000000    -1.226000000
O     2.118000000    -5.527000000    -0.232000000
H     2.193000000    -4.680000000    -0.673000000
H     1.959000000    -5.305000000     0.686000000
O     0.183000000    -5.823000000    -2.561000000
H     0.939000000    -5.895000000    -1.978000000
H    -0.169000000    -4.949000000    -2.391000000
O    -1.144000000    -8.308000000    -2.593000000
H    -1.571000000    -8.660000000    -1.812000000
H    -1.061000000    -7.371000000    -2.419000000
O     5.310000000    -6.862000000     1.749000000
H     6.255000000    -6.749000000     1.654000000
H     5.098000000    -6.416000000     2.570000000
O     5.190000000    -5.838000000    -0.744000000
H     5.958000000    -5.377000000    -0.406000000
H     4.978000000    -6.479000000    -0.065000000
