215
-1443.71751
C     3.133000000    -0.786000000     4.816000000
H     2.455000000    -1.041000000     5.626000000
C     2.984000000     0.276000000     3.896000000
C     3.906000000     0.359000000     2.808000000
H     3.890000000     1.283000000     2.235000000
C     1.857000000     1.273000000     3.960000000
O     1.060000000     1.052000000     5.116000000
H     1.245000000     0.990000000     3.091000000
O     2.270000000     2.608000000     3.845000000
C     1.598000000     3.460000000     2.995000000
C     2.108000000     3.635000000     1.760000000
H     3.113000000     3.334000000     1.476000000
C     1.261000000     4.160000000     0.764000000
O     1.885000000     4.442000000    -0.471000000
C    -0.044000000     4.592000000     1.082000000
C    -0.903000000     5.526000000     0.164000000
H    -1.630000000     6.223000000     0.588000000
C    -1.571000000     4.568000000    -0.846000000
C    -2.865000000     4.048000000    -0.601000000
H    -3.338000000     4.544000000     0.243000000
H    -0.193000000     6.229000000    -0.276000000
C    -0.574000000     4.332000000     2.342000000
H    -1.627000000     4.498000000     2.551000000
C     0.226000000     3.820000000     3.301000000
C    -0.430000000     3.416000000     4.629000000
H    -1.177000000     4.148000000     4.942000000
H     0.288000000     3.484000000     5.448000000
C    -1.068000000     2.047000000     4.550000000
C    -2.317000000     1.880000000     3.947000000
H    -2.871000000     2.715000000     3.524000000
C    -0.331000000     0.947000000     4.897000000
C    -0.796000000    -0.331000000     4.631000000
H    -0.158000000    -1.142000000     4.972000000
C    -2.045000000    -0.462000000     4.075000000
O    -2.537000000    -1.716000000     3.734000000
C    -2.513000000    -2.068000000     2.395000000
C    -1.961000000    -3.434000000     2.182000000
C    -2.550000000    -4.224000000     1.235000000
H    -3.504000000    -3.949000000     0.793000000
C    -0.777000000    -3.816000000     2.802000000
H    -0.338000000    -3.067000000     3.456000000
O    -3.907000000    -2.068000000     1.953000000
H    -1.993000000    -1.270000000     1.845000000
C    -2.877000000     0.631000000     3.766000000
C    -4.338000000     0.430000000     3.301000000
H    -4.915000000     1.294000000     3.637000000
H    -4.884000000    -0.412000000     3.732000000
C    -4.443000000     0.210000000     1.813000000
C    -4.685000000     1.285000000     1.127000000
H    -4.779000000     2.269000000     1.580000000
C    -4.338000000    -1.013000000     1.243000000
C    -4.416000000    -1.142000000    -0.122000000
H    -4.056000000    -2.064000000    -0.570000000
C    -4.574000000    -0.024000000    -0.921000000
O    -4.405000000    -0.161000000    -2.250000000
C    -3.143000000     0.305000000    -2.745000000
C    -2.549000000    -0.736000000    -3.728000000
C    -2.803000000    -2.165000000    -3.639000000
H    -3.592000000    -2.587000000    -3.022000000
C    -1.597000000    -0.335000000    -4.697000000
H    -1.347000000     0.721000000    -4.761000000
O    -3.215000000     1.575000000    -3.322000000
H    -2.445000000     0.298000000    -1.896000000
C    -4.688000000     1.264000000    -0.305000000
C    -4.819000000     2.611000000    -1.072000000
H    -5.381000000     3.263000000    -0.401000000
H    -5.394000000     2.485000000    -1.992000000
C    -3.466000000     3.190000000    -1.532000000
C    -2.742000000     2.627000000    -2.572000000
C    -1.547000000     3.116000000    -2.837000000
H    -1.106000000     2.719000000    -3.748000000
C    -0.930000000     4.080000000    -1.973000000
O     0.345000000     4.406000000    -2.292000000
C     1.419000000     3.674000000    -1.568000000
H     0.928000000     2.811000000    -1.094000000
C     2.462000000     3.215000000    -2.530000000
C     3.660000000     2.777000000    -2.037000000
H     3.817000000     2.780000000    -0.961000000
C     2.176000000     3.178000000    -3.927000000
H     1.281000000     3.612000000    -4.365000000
C     3.205000000     2.673000000    -4.835000000
O     3.078000000     2.614000000    -6.187000000
C     4.390000000     2.299000000    -4.283000000
H     5.109000000     1.889000000    -4.988000000
C     4.641000000     2.386000000    -2.915000000
O     5.829000000     1.862000000    -2.558000000
C     6.206000000     1.695000000    -1.280000000
C     5.719000000     0.549000000    -0.641000000
H     5.069000000    -0.149000000    -1.161000000
C     7.251000000     2.407000000    -0.792000000
H     7.609000000     3.213000000    -1.428000000
C     7.568000000     2.292000000     0.578000000
H     8.385000000     2.883000000     0.982000000
C     6.997000000     1.316000000     1.353000000
H     7.232000000     1.099000000     2.392000000
C     6.037000000     0.416000000     0.735000000
O     5.541000000    -0.668000000     1.433000000
C     4.899000000    -0.605000000     2.637000000
C     5.049000000    -1.567000000     3.523000000
H     5.792000000    -2.351000000     3.399000000
C     4.215000000    -1.700000000     4.601000000
O     4.304000000    -2.840000000     5.461000000
C     3.272000000    -3.746000000     5.349000000
C     2.797000000    -4.191000000     4.095000000
H     3.237000000    -3.914000000     3.141000000
C     2.779000000    -4.198000000     6.544000000
H     3.272000000    -3.914000000     7.470000000
C     1.634000000    -4.981000000     6.545000000
H     1.214000000    -5.276000000     7.504000000
C     1.113000000    -5.395000000     5.329000000
H     0.264000000    -6.074000000     5.343000000
C     1.663000000    -5.048000000     4.117000000
O     1.130000000    -5.449000000     2.918000000
C    -0.170000000    -5.067000000     2.434000000
C    -0.866000000    -5.914000000     1.525000000
H    -0.434000000    -6.876000000     1.261000000
C    -2.018000000    -5.474000000     0.906000000
O    -2.743000000    -6.267000000     0.049000000
C    -3.224000000    -5.852000000    -1.181000000
C    -2.478000000    -5.234000000    -2.166000000
H    -1.415000000    -5.048000000    -2.029000000
C    -4.563000000    -6.038000000    -1.324000000
H    -5.125000000    -6.403000000    -0.468000000
C    -5.165000000    -5.804000000    -2.550000000
H    -6.245000000    -5.897000000    -2.639000000
C    -4.423000000    -5.141000000    -3.508000000
H    -4.828000000    -4.990000000    -4.506000000
C    -3.090000000    -4.889000000    -3.358000000
O    -2.438000000    -4.376000000    -4.469000000
C    -2.069000000    -3.085000000    -4.456000000
C    -1.211000000    -2.565000000    -5.413000000
H    -0.662000000    -3.216000000    -6.088000000
C    -0.961000000    -1.237000000    -5.532000000
O    -0.154000000    -0.951000000    -6.574000000
C     0.261000000     0.359000000    -6.947000000
C    -0.524000000     1.253000000    -7.746000000
H    -1.449000000     0.882000000    -8.180000000
C     0.011000000     2.460000000    -8.092000000
H    -0.536000000     3.193000000    -8.679000000
C     1.214000000     2.889000000    -7.616000000
H     1.573000000     3.858000000    -7.954000000
C     1.915000000     2.101000000    -6.730000000
C     1.464000000     0.820000000    -6.444000000
H     1.985000000     0.214000000    -5.707000000
C     2.010000000    -0.925000000    -0.320000000
H     3.081000000    -1.089000000    -0.414000000
C     1.520000000     0.280000000     0.241000000
H     2.276000000     1.045000000     0.398000000
C     0.136000000     0.526000000     0.366000000
H    -0.291000000     1.423000000     0.736000000
C    -0.740000000    -0.401000000    -0.081000000
H    -1.812000000    -0.228000000    -0.034000000
C    -0.310000000    -1.555000000    -0.590000000
H    -0.994000000    -2.282000000    -1.022000000
C     1.016000000    -1.880000000    -0.690000000
C     1.477000000    -3.135000000    -1.318000000
O     0.696000000    -3.916000000    -1.870000000
O     2.628000000    -3.425000000    -1.389000000
O     5.286000000    -3.552000000    -0.254000000
H     5.833000000    -3.372000000    -1.019000000
H     4.469000000    -3.084000000    -0.429000000
O     7.404000000    -5.620000000    -4.439000000
H     7.764000000    -5.958000000    -3.619000000
H     6.915000000    -4.838000000    -4.182000000
O     2.420000000    -8.515000000    -3.558000000
H     2.504000000    -8.928000000    -2.699000000
H     2.747000000    -7.625000000    -3.429000000
O    -0.873000000    -6.741000000    -6.143000000
H    -1.102000000    -7.378000000    -5.466000000
H    -0.547000000    -5.983000000    -5.658000000
O     0.781000000    -4.907000000    -4.631000000
H     0.107000000    -4.796000000    -3.960000000
H     1.548000000    -5.219000000    -4.150000000
O     6.951000000    -2.916000000    -2.154000000
H     7.814000000    -2.511000000    -2.062000000
H     6.643000000    -2.630000000    -3.013000000
O     3.055000000    -5.699000000    -2.497000000
H     2.786000000    -4.966000000    -1.944000000
H     3.918000000    -5.946000000    -2.164000000
O     3.183000000    -2.573000000    -3.906000000
H     2.289000000    -2.537000000    -4.246000000
H     3.077000000    -2.607000000    -2.955000000
O     5.816000000    -6.692000000    -1.029000000
H     5.984000000    -6.526000000    -0.101000000
H     6.630000000    -6.445000000    -1.467000000
O     2.088000000    -3.259000000    -6.856000000
H     1.367000000    -3.454000000    -6.257000000
H     1.662000000    -3.088000000    -7.696000000
O     4.725000000    -6.991000000     3.134000000
H     5.462000000    -6.974000000     2.523000000
H     4.093000000    -6.375000000     2.764000000
O     5.696000000    -3.084000000    -4.906000000
H     4.846000000    -2.770000000    -4.598000000
H     5.484000000    -3.729000000    -5.580000000
O     2.917000000    -7.982000000    -0.684000000
H     2.957000000    -7.207000000    -0.124000000
H     3.703000000    -8.480000000    -0.460000000
O     3.584000000    -5.771000000     0.866000000
H     2.798000000    -5.226000000     0.850000000
H     4.268000000    -5.218000000     0.488000000
O    -2.464000000    -8.874000000    -1.419000000
H    -1.714000000    -9.329000000    -1.036000000
H    -2.485000000    -8.028000000    -0.972000000
O     0.618000000    -6.821000000    -2.016000000
H     1.547000000    -6.877000000    -1.792000000
H     0.431000000    -5.882000000    -2.028000000
O    -1.079000000    -8.033000000    -3.901000000
H    -1.691000000    -8.369000000    -3.246000000
H    -0.285000000    -7.834000000    -3.406000000
O     0.024000000    -9.564000000    -0.380000000
H     0.583000000    -8.788000000    -0.415000000
H     0.623000000   -10.298000000    -0.515000000
O     7.617000000    -3.143000000     1.498000000
H     6.723000000    -2.853000000     1.317000000
H     7.749000000    -3.892000000     0.917000000
