215
-1466.43512
C     3.211000000    -0.529000000     3.407000000
H     2.199000000    -0.857000000     3.631000000
C     3.503000000     0.807000000     3.161000000
C     4.812000000     1.221000000     2.861000000
H     5.035000000     2.251000000     2.596000000
C     2.320000000     1.778000000     3.248000000
O     1.571000000     1.550000000     4.415000000
H     1.545000000     1.601000000     2.488000000
O     2.605000000     3.137000000     3.139000000
C     1.931000000     3.897000000     2.210000000
C     2.397000000     3.795000000     0.912000000
H     3.423000000     3.486000000     0.729000000
C     1.662000000     4.338000000    -0.121000000
O     2.133000000     4.105000000    -1.389000000
C     0.392000000     4.862000000     0.154000000
C    -0.473000000     5.356000000    -0.894000000
H    -1.208000000     6.058000000    -0.496000000
C    -1.269000000     4.321000000    -1.574000000
C    -2.567000000     4.081000000    -1.102000000
H    -2.935000000     4.626000000    -0.237000000
H     0.063000000     5.965000000    -1.625000000
C    -0.121000000     4.903000000     1.464000000
H    -1.174000000     5.105000000     1.640000000
C     0.668000000     4.434000000     2.531000000
C     0.074000000     4.072000000     3.908000000
H    -0.657000000     4.784000000     4.296000000
H     0.878000000     4.080000000     4.647000000
C    -0.505000000     2.681000000     3.951000000
C    -1.904000000     2.559000000     3.769000000
H    -2.443000000     3.450000000     3.458000000
C     0.210000000     1.543000000     4.377000000
C    -0.440000000     0.325000000     4.435000000
H     0.114000000    -0.572000000     4.699000000
C    -1.801000000     0.201000000     4.275000000
O    -2.324000000    -1.078000000     4.256000000
C    -2.508000000    -1.644000000     2.967000000
C    -2.282000000    -3.184000000     2.913000000
C    -2.844000000    -4.013000000     1.942000000
H    -3.604000000    -3.570000000     1.303000000
C    -1.271000000    -3.729000000     3.762000000
H    -0.853000000    -3.022000000     4.474000000
O    -3.903000000    -1.424000000     2.720000000
H    -2.007000000    -1.117000000     2.141000000
C    -2.551000000     1.326000000     3.921000000
C    -3.985000000     1.338000000     3.628000000
H    -4.494000000     2.296000000     3.758000000
H    -4.523000000     0.664000000     4.298000000
C    -4.228000000     0.927000000     2.223000000
C    -4.326000000     1.922000000     1.242000000
H    -4.202000000     2.970000000     1.500000000
C    -4.320000000    -0.402000000     1.833000000
C    -4.397000000    -0.774000000     0.475000000
H    -4.432000000    -1.806000000     0.136000000
C    -4.565000000     0.219000000    -0.446000000
O    -4.699000000    -0.160000000    -1.744000000
C    -3.502000000     0.027000000    -2.607000000
C    -3.153000000    -1.163000000    -3.558000000
C    -3.298000000    -2.434000000    -3.205000000
H    -3.711000000    -2.647000000    -2.222000000
C    -2.363000000    -0.875000000    -4.731000000
H    -2.137000000     0.172000000    -4.917000000
O    -3.471000000     1.302000000    -3.304000000
H    -2.623000000    -0.093000000    -1.956000000
C    -4.512000000     1.581000000    -0.117000000
C    -4.653000000     2.712000000    -1.093000000
H    -5.075000000     3.594000000    -0.606000000
H    -5.312000000     2.399000000    -1.906000000
C    -3.339000000     3.053000000    -1.651000000
C    -2.806000000     2.331000000    -2.739000000
C    -1.550000000     2.608000000    -3.248000000
H    -1.026000000     1.983000000    -3.967000000
C    -0.785000000     3.611000000    -2.700000000
O     0.519000000     3.601000000    -3.129000000
C     1.481000000     3.044000000    -2.195000000
H     0.910000000     2.358000000    -1.552000000
C     2.564000000     2.307000000    -3.018000000
C     3.696000000     1.830000000    -2.283000000
H     3.880000000     2.002000000    -1.226000000
C     2.369000000     1.862000000    -4.287000000
H     1.460000000     2.182000000    -4.789000000
C     3.240000000     0.948000000    -4.889000000
O     2.971000000     0.426000000    -6.133000000
C     4.310000000     0.445000000    -4.220000000
H     4.896000000    -0.373000000    -4.630000000
C     4.631000000     0.989000000    -2.940000000
O     5.541000000     0.318000000    -2.205000000
C     6.329000000     0.899000000    -1.298000000
C     6.296000000     0.384000000     0.017000000
H     5.596000000    -0.396000000     0.306000000
C     7.303000000     1.813000000    -1.708000000
H     7.488000000     2.026000000    -2.758000000
C     8.155000000     2.376000000    -0.738000000
H     8.904000000     3.104000000    -1.042000000
C     8.137000000     1.892000000     0.603000000
H     8.702000000     2.392000000     1.385000000
C     7.200000000     0.902000000     0.973000000
O     7.062000000     0.509000000     2.231000000
C     5.804000000     0.237000000     2.774000000
C     5.474000000    -1.076000000     2.954000000
H     6.199000000    -1.880000000     2.853000000
C     4.201000000    -1.507000000     3.259000000
O     3.926000000    -2.774000000     3.619000000
C     2.892000000    -3.225000000     4.542000000
C     2.052000000    -4.203000000     4.052000000
H     2.007000000    -4.541000000     3.020000000
C     2.852000000    -2.844000000     5.902000000
H     3.539000000    -2.104000000     6.305000000
C     1.853000000    -3.338000000     6.746000000
H     1.704000000    -2.997000000     7.767000000
C     0.946000000    -4.267000000     6.250000000
H     0.111000000    -4.660000000     6.824000000
C     1.032000000    -4.659000000     4.910000000
O     0.154000000    -5.573000000     4.385000000
C    -0.914000000    -5.100000000     3.712000000
C    -1.654000000    -5.951000000     2.862000000
H    -1.472000000    -7.018000000     2.963000000
C    -2.584000000    -5.407000000     1.959000000
O    -3.183000000    -6.239000000     1.094000000
C    -3.825000000    -5.746000000     0.005000000
C    -3.105000000    -5.594000000    -1.193000000
H    -2.048000000    -5.811000000    -1.324000000
C    -5.201000000    -5.567000000     0.042000000
H    -5.734000000    -5.875000000     0.938000000
C    -5.854000000    -5.096000000    -1.082000000
H    -6.939000000    -5.057000000    -1.044000000
C    -5.123000000    -4.908000000    -2.258000000
H    -5.701000000    -4.684000000    -3.151000000
C    -3.724000000    -5.097000000    -2.370000000
O    -2.979000000    -4.733000000    -3.512000000
C    -2.765000000    -3.456000000    -3.955000000
C    -2.125000000    -3.239000000    -5.199000000
H    -1.801000000    -4.088000000    -5.795000000
C    -1.846000000    -1.913000000    -5.500000000
O    -1.265000000    -1.661000000    -6.684000000
C    -0.411000000    -0.580000000    -6.908000000
C    -0.765000000     0.443000000    -7.729000000
H    -1.815000000     0.506000000    -8.005000000
C     0.084000000     1.512000000    -8.000000000
H    -0.303000000     2.359000000    -8.562000000
C     1.323000000     1.516000000    -7.425000000
H     2.017000000     2.340000000    -7.575000000
C     1.693000000     0.461000000    -6.650000000
C     0.844000000    -0.594000000    -6.366000000
H     1.107000000    -1.439000000    -5.735000000
C     2.033000000    -0.880000000    -0.395000000
H     3.060000000    -0.529000000    -0.463000000
C     1.047000000     0.092000000    -0.097000000
H     1.285000000     1.147000000     0.012000000
C    -0.324000000    -0.262000000    -0.007000000
H    -1.139000000     0.406000000     0.322000000
C    -0.694000000    -1.587000000    -0.314000000
H    -1.766000000    -1.762000000    -0.355000000
C     0.269000000    -2.557000000    -0.533000000
H    -0.104000000    -3.557000000    -0.737000000
C     1.653000000    -2.228000000    -0.588000000
C     2.683000000    -3.297000000    -0.920000000
O     2.400000000    -4.497000000    -0.827000000
O     3.630000000    -3.059000000    -1.660000000
O     5.412000000    -3.351000000     0.534000000
H     4.861000000    -3.936000000     1.054000000
H     4.939000000    -3.248000000    -0.292000000
O     3.959000000    -5.512000000    -6.889000000
H     4.696000000    -6.120000000    -6.833000000
H     4.109000000    -4.888000000    -6.179000000
O     1.774000000    -6.178000000    -2.781000000
H     2.635000000    -6.462000000    -3.088000000
H     1.962000000    -5.550000000    -2.085000000
O     2.864000000    -3.709000000    -4.141000000
H     1.951000000    -3.996000000    -4.130000000
H     3.047000000    -3.458000000    -3.235000000
O     1.648000000    -9.067000000    -1.646000000
H     2.602000000    -8.986000000    -1.662000000
H     1.339000000    -8.374000000    -2.229000000
O     7.445000000    -6.293000000    -4.174000000
H     7.860000000    -6.096000000    -3.335000000
H     7.532000000    -5.484000000    -4.679000000
O     4.527000000    -6.412000000    -3.012000000
H     4.991000000    -5.892000000    -3.669000000
H     4.869000000    -6.101000000    -2.174000000
O     8.059000000    -4.014000000     2.720000000
H     8.770000000    -4.256000000     3.313000000
H     8.486000000    -3.513000000     2.025000000
O     6.217000000    -3.245000000    -2.279000000
H     6.386000000    -2.374000000    -1.922000000
H     5.269000000    -3.354000000    -2.208000000
O     5.279000000    -3.762000000    -5.131000000
H     4.481000000    -3.609000000    -4.625000000
H     5.988000000    -3.476000000    -4.555000000
O     3.534000000    -6.928000000     2.392000000
H     4.340000000    -7.136000000     2.865000000
H     2.846000000    -6.982000000     3.056000000
O     7.730000000    -5.452000000    -1.482000000
H     7.494000000    -5.555000000    -0.560000000
H     7.303000000    -4.638000000    -1.749000000
O    -0.087000000    -6.635000000    -4.919000000
H     0.566000000    -6.371000000    -5.568000000
H     0.336000000    -6.475000000    -4.076000000
O     4.836000000    -8.808000000    -2.322000000
H     4.562000000    -7.897000000    -2.433000000
H     5.438000000    -8.789000000    -1.578000000
O     4.242000000    -6.034000000    -0.175000000
H     3.590000000    -5.433000000    -0.537000000
H     3.787000000    -6.476000000     0.542000000
O     1.228000000    -5.843000000     0.934000000
H     1.481000000    -5.340000000     0.160000000
H     2.057000000    -6.129000000     1.316000000
O    -0.155000000    -8.259000000     0.766000000
H     0.274000000    -8.560000000    -0.034000000
H    -0.053000000    -7.307000000     0.749000000
O     8.246000000    -2.299000000     0.482000000
H     7.590000000    -2.922000000     0.169000000
H     8.566000000    -1.870000000    -0.311000000
O     6.671000000    -6.016000000     1.474000000
H     6.759000000    -5.157000000     1.886000000
H     5.967000000    -5.905000000     0.835000000
