215
-1458.46587
C     3.255000000    -1.069000000     2.771000000
H     2.365000000    -1.194000000     3.383000000
C     3.747000000     0.166000000     2.460000000
C     4.960000000     0.313000000     1.736000000
H     5.355000000     1.233000000     1.312000000
C     2.870000000     1.389000000     2.603000000
O     2.378000000     1.387000000     3.991000000
H     2.023000000     1.442000000     1.904000000
O     3.601000000     2.523000000     2.418000000
C     2.985000000     3.453000000     1.574000000
C     3.359000000     3.461000000     0.223000000
H     4.138000000     2.850000000    -0.226000000
C     2.439000000     4.068000000    -0.651000000
O     2.683000000     3.970000000    -2.019000000
C     1.328000000     4.761000000    -0.281000000
C     0.309000000     5.432000000    -1.293000000
H    -0.252000000     6.232000000    -0.805000000
C    -0.766000000     4.456000000    -1.773000000
C    -1.996000000     4.443000000    -1.154000000
H    -2.321000000     5.198000000    -0.443000000
H     0.919000000     5.915000000    -2.060000000
C     1.064000000     4.832000000     1.073000000
H     0.313000000     5.493000000     1.500000000
C     1.836000000     4.118000000     1.965000000
C     1.393000000     4.150000000     3.466000000
H     0.784000000     5.033000000     3.670000000
H     2.345000000     4.260000000     3.988000000
C     0.483000000     3.023000000     3.823000000
C    -0.879000000     3.163000000     3.836000000
H    -1.404000000     4.017000000     3.418000000
C     1.023000000     1.714000000     4.072000000
C     0.120000000     0.674000000     4.355000000
H     0.525000000    -0.283000000     4.676000000
C    -1.244000000     0.860000000     4.325000000
O    -2.014000000    -0.268000000     4.480000000
C    -2.527000000    -0.935000000     3.340000000
C    -2.459000000    -2.428000000     3.563000000
C    -3.257000000    -3.228000000     2.768000000
H    -4.023000000    -2.743000000     2.168000000
C    -1.589000000    -3.057000000     4.377000000
H    -1.019000000    -2.442000000     5.069000000
O    -3.920000000    -0.513000000     3.185000000
H    -1.961000000    -0.585000000     2.464000000
C    -1.766000000     2.108000000     4.128000000
C    -3.278000000     2.315000000     4.048000000
H    -3.587000000     3.328000000     4.314000000
H    -3.843000000     1.670000000     4.725000000
C    -3.904000000     1.919000000     2.684000000
C    -4.038000000     2.833000000     1.617000000
H    -3.918000000     3.896000000     1.813000000
C    -4.162000000     0.600000000     2.349000000
C    -4.561000000     0.243000000     1.107000000
H    -4.799000000    -0.792000000     0.879000000
C    -4.701000000     1.147000000     0.088000000
O    -4.902000000     0.705000000    -1.221000000
C    -3.734000000     0.430000000    -2.067000000
C    -3.759000000    -0.874000000    -2.787000000
C    -4.562000000    -1.894000000    -2.469000000
H    -5.326000000    -1.769000000    -1.705000000
C    -2.790000000    -1.080000000    -3.773000000
H    -2.074000000    -0.264000000    -3.833000000
O    -3.551000000     1.604000000    -2.978000000
H    -2.863000000     0.381000000    -1.397000000
C    -4.408000000     2.465000000     0.367000000
C    -4.292000000     3.506000000    -0.749000000
H    -4.467000000     4.538000000    -0.438000000
H    -5.124000000     3.298000000    -1.425000000
C    -2.920000000     3.483000000    -1.525000000
C    -2.592000000     2.548000000    -2.527000000
C    -1.414000000     2.671000000    -3.196000000
H    -1.261000000     2.070000000    -4.089000000
C    -0.458000000     3.560000000    -2.813000000
O     0.803000000     3.595000000    -3.354000000
C     1.940000000     2.908000000    -2.725000000
H     1.605000000     2.162000000    -1.990000000
C     2.728000000     2.010000000    -3.702000000
C     4.078000000     1.861000000    -3.405000000
H     4.459000000     2.554000000    -2.659000000
C     2.123000000     1.196000000    -4.662000000
H     1.045000000     1.250000000    -4.795000000
C     2.958000000     0.264000000    -5.377000000
O     2.483000000    -0.574000000    -6.424000000
C     4.262000000     0.180000000    -5.001000000
H     4.968000000    -0.475000000    -5.505000000
C     4.892000000     0.905000000    -3.995000000
O     6.209000000     0.859000000    -3.734000000
C     6.717000000     1.032000000    -2.451000000
C     6.556000000     0.049000000    -1.556000000
H     5.980000000    -0.851000000    -1.758000000
C     7.328000000     2.230000000    -2.108000000
H     7.505000000     3.032000000    -2.820000000
C     7.731000000     2.408000000    -0.798000000
H     8.215000000     3.311000000    -0.434000000
C     7.540000000     1.413000000     0.127000000
H     7.880000000     1.518000000     1.154000000
C     6.955000000     0.209000000    -0.245000000
O     6.797000000    -0.806000000     0.599000000
C     5.713000000    -0.857000000     1.460000000
C     5.106000000    -2.097000000     1.666000000
H     5.571000000    -3.017000000     1.321000000
C     3.910000000    -2.233000000     2.363000000
O     3.355000000    -3.544000000     2.588000000
C     2.763000000    -3.983000000     3.778000000
C     1.405000000    -4.308000000     3.792000000
H     0.781000000    -4.014000000     2.952000000
C     3.576000000    -4.231000000     4.886000000
H     4.623000000    -3.963000000     4.768000000
C     3.079000000    -4.780000000     6.080000000
H     3.699000000    -5.021000000     6.940000000
C     1.699000000    -5.012000000     6.167000000
H     1.154000000    -5.490000000     6.977000000
C     0.890000000    -4.778000000     5.018000000
O    -0.453000000    -5.003000000     5.180000000
C    -1.450000000    -4.440000000     4.409000000
C    -2.073000000    -5.235000000     3.490000000
H    -1.767000000    -6.278000000     3.526000000
C    -2.987000000    -4.620000000     2.643000000
O    -3.556000000    -5.479000000     1.738000000
C    -4.573000000    -5.063000000     0.908000000
C    -4.283000000    -4.817000000    -0.427000000
H    -3.350000000    -5.076000000    -0.921000000
C    -5.886000000    -4.998000000     1.465000000
H    -6.069000000    -5.447000000     2.438000000
C    -6.957000000    -4.634000000     0.583000000
H    -7.983000000    -4.679000000     0.939000000
C    -6.632000000    -4.370000000    -0.770000000
H    -7.436000000    -3.978000000    -1.388000000
C    -5.314000000    -4.422000000    -1.291000000
O    -5.168000000    -4.256000000    -2.612000000
C    -4.404000000    -3.192000000    -3.039000000
C    -3.491000000    -3.305000000    -4.149000000
H    -3.342000000    -4.309000000    -4.539000000
C    -2.642000000    -2.256000000    -4.408000000
O    -1.718000000    -2.536000000    -5.357000000
C    -0.980000000    -1.612000000    -6.004000000
C    -1.595000000    -0.815000000    -6.987000000
H    -2.670000000    -0.886000000    -7.128000000
C    -0.826000000     0.053000000    -7.762000000
H    -1.287000000     0.588000000    -8.588000000
C     0.558000000     0.084000000    -7.555000000
H     1.031000000     0.701000000    -8.315000000
C     1.192000000    -0.738000000    -6.606000000
C     0.396000000    -1.595000000    -5.864000000
H     0.768000000    -2.274000000    -5.101000000
C     2.140000000    -1.632000000    -0.915000000
H     3.225000000    -1.603000000    -0.959000000
C     1.396000000    -0.391000000    -0.913000000
H     2.018000000     0.499000000    -0.948000000
C     0.011000000    -0.435000000    -0.895000000
H    -0.525000000     0.462000000    -0.947000000
C    -0.690000000    -1.608000000    -0.672000000
H    -1.755000000    -1.484000000    -0.493000000
C    -0.006000000    -2.825000000    -0.634000000
H    -0.574000000    -3.748000000    -0.556000000
C     1.426000000    -2.862000000    -0.857000000
C     2.159000000    -4.138000000    -0.905000000
O     1.656000000    -5.178000000    -0.590000000
O     3.313000000    -4.145000000    -1.363000000
O     4.400000000    -5.723000000     0.592000000
H     4.173000000    -5.045000000    -0.044000000
H     3.777000000    -5.600000000     1.308000000
O    -1.785000000    -8.244000000     1.593000000
H    -1.694000000    -8.447000000     0.662000000
H    -1.494000000    -7.335000000     1.670000000
O     2.035000000    -5.444000000    -3.745000000
H     2.754000000    -5.548000000    -4.369000000
H     2.443000000    -5.050000000    -2.974000000
O    -0.761000000    -8.449000000    -0.995000000
H    -0.725000000    -7.605000000    -1.446000000
H    -1.320000000    -8.993000000    -1.551000000
O     4.910000000    -6.896000000    -5.515000000
H     5.432000000    -6.566000000    -4.783000000
H     5.300000000    -6.491000000    -6.289000000
O     2.715000000    -9.338000000    -3.596000000
H     3.184000000    -9.155000000    -4.410000000
H     2.656000000    -8.490000000    -3.157000000
O     6.772000000    -6.289000000     1.772000000
H     5.869000000    -5.983000000     1.684000000
H     6.763000000    -7.173000000     1.404000000
O     5.858000000    -3.695000000    -1.375000000
H     6.073000000    -3.140000000    -2.125000000
H     4.944000000    -3.943000000    -1.515000000
O     7.320000000    -8.289000000    -0.002000000
H     8.025000000    -7.744000000    -0.350000000
H     6.536000000    -7.992000000    -0.465000000
O     2.426000000    -7.196000000     2.585000000
H     2.483000000    -7.242000000     3.539000000
H     2.936000000    -7.945000000     2.278000000
O     6.696000000    -6.042000000    -3.447000000
H     6.187000000    -6.497000000    -2.776000000
H     6.410000000    -5.131000000    -3.389000000
O    -0.469000000    -6.249000000    -2.313000000
H    -0.273000000    -5.808000000    -3.139000000
H     0.274000000    -6.038000000    -1.747000000
O     7.726000000    -4.099000000     0.561000000
H     7.121000000    -3.747000000    -0.092000000
H     7.256000000    -4.837000000     0.950000000
O     1.496000000   -10.229000000    -1.105000000
H     0.817000000    -9.647000000    -0.764000000
H     1.744000000    -9.842000000    -1.945000000
O     2.644000000    -7.593000000    -1.595000000
H     2.434000000    -6.725000000    -1.249000000
H     2.241000000    -8.202000000    -0.977000000
O     0.161000000    -6.223000000     1.359000000
H     0.731000000    -5.569000000     0.955000000
H     0.751000000    -6.765000000     1.883000000
O    -2.930000000    -6.556000000    -3.740000000
H    -2.235000000    -6.296000000    -3.135000000
H    -2.525000000    -7.220000000    -4.298000000
O     6.635000000    -2.993000000    -4.044000000
H     7.585000000    -3.047000000    -4.153000000
H     6.306000000    -2.785000000    -4.919000000
O     5.308000000    -7.202000000    -1.505000000
H     5.082000000    -6.468000000    -0.933000000
H     4.465000000    -7.551000000    -1.792000000
