215
-1439.61487
C     3.524000000    -0.042000000     3.017000000
H     2.687000000    -0.297000000     3.662000000
C     3.602000000     1.209000000     2.369000000
C     4.784000000     1.537000000     1.610000000
H     5.098000000     2.529000000     1.295000000
C     2.465000000     2.180000000     2.396000000
O     1.888000000     2.402000000     3.702000000
H     1.624000000     1.802000000     1.796000000
O     2.747000000     3.525000000     1.933000000
C     1.937000000     4.122000000     1.032000000
C     2.256000000     4.077000000    -0.310000000
H     3.236000000     3.712000000    -0.608000000
C     1.354000000     4.537000000    -1.310000000
O     1.712000000     4.262000000    -2.630000000
C     0.081000000     5.010000000    -0.963000000
C    -0.967000000     5.277000000    -2.083000000
H    -1.692000000     6.039000000    -1.788000000
C    -1.738000000     3.986000000    -2.370000000
C    -2.885000000     3.698000000    -1.638000000
H    -3.279000000     4.382000000    -0.890000000
H    -0.554000000     5.576000000    -3.048000000
C    -0.257000000     5.037000000     0.406000000
H    -1.256000000     5.357000000     0.690000000
C     0.645000000     4.616000000     1.389000000
C     0.315000000     4.796000000     2.897000000
H    -0.420000000     5.604000000     2.928000000
H     1.258000000     4.975000000     3.416000000
C    -0.271000000     3.481000000     3.471000000
C    -1.671000000     3.385000000     3.435000000
H    -2.201000000     4.235000000     3.015000000
C     0.529000000     2.365000000     3.855000000
C    -0.125000000     1.228000000     4.208000000
H     0.482000000     0.403000000     4.571000000
C    -1.517000000     1.132000000     4.305000000
O    -2.041000000    -0.088000000     4.540000000
C    -2.255000000    -1.020000000     3.499000000
C    -1.768000000    -2.475000000     3.826000000
C    -2.391000000    -3.475000000     3.027000000
H    -3.185000000    -3.227000000     2.328000000
C    -0.684000000    -2.748000000     4.696000000
H    -0.147000000    -1.945000000     5.194000000
O    -3.647000000    -0.937000000     3.159000000
H    -1.578000000    -0.706000000     2.691000000
C    -2.327000000     2.211000000     3.815000000
C    -3.766000000     2.023000000     3.685000000
H    -4.245000000     3.005000000     3.709000000
H    -4.054000000     1.358000000     4.502000000
C    -4.198000000     1.325000000     2.432000000
C    -4.596000000     2.099000000     1.327000000
H    -4.767000000     3.166000000     1.444000000
C    -4.103000000    -0.044000000     2.268000000
C    -4.468000000    -0.634000000     1.079000000
H    -4.353000000    -1.713000000     1.010000000
C    -4.726000000     0.146000000    -0.020000000
O    -4.841000000    -0.492000000    -1.212000000
C    -3.659000000    -0.479000000    -2.020000000
C    -3.150000000    -1.856000000    -2.350000000
C    -3.659000000    -2.991000000    -1.749000000
H    -4.533000000    -2.960000000    -1.103000000
C    -2.115000000    -1.974000000    -3.319000000
H    -1.670000000    -1.080000000    -3.749000000
O    -3.907000000     0.492000000    -3.092000000
H    -2.757000000    -0.133000000    -1.495000000
C    -4.790000000     1.536000000     0.034000000
C    -4.999000000     2.427000000    -1.143000000
H    -5.216000000     3.462000000    -0.870000000
H    -5.777000000     2.054000000    -1.813000000
C    -3.683000000     2.593000000    -1.939000000
C    -3.241000000     1.691000000    -2.942000000
C    -2.067000000     1.884000000    -3.588000000
H    -1.709000000     1.192000000    -4.345000000
C    -1.284000000     3.013000000    -3.334000000
O    -0.048000000     3.196000000    -3.954000000
C     1.094000000     3.031000000    -3.099000000
H     0.688000000     2.444000000    -2.262000000
C     2.126000000     2.125000000    -3.838000000
C     3.432000000     1.820000000    -3.390000000
H     3.859000000     2.335000000    -2.534000000
C     1.734000000     1.487000000    -5.025000000
H     0.739000000     1.705000000    -5.402000000
C     2.608000000     0.637000000    -5.844000000
O     2.071000000    -0.078000000    -6.842000000
C     3.901000000     0.498000000    -5.381000000
H     4.611000000    -0.093000000    -5.955000000
C     4.314000000     1.101000000    -4.174000000
O     5.626000000     0.771000000    -3.826000000
C     6.321000000     1.385000000    -2.789000000
C     6.234000000     0.907000000    -1.449000000
H     5.508000000     0.137000000    -1.203000000
C     7.345000000     2.215000000    -3.134000000
H     7.375000000     2.646000000    -4.131000000
C     8.168000000     2.720000000    -2.125000000
H     8.925000000     3.447000000    -2.408000000
C     8.071000000     2.348000000    -0.805000000
H     8.752000000     2.786000000    -0.081000000
C     7.141000000     1.417000000    -0.433000000
O     7.027000000     1.044000000     0.937000000
C     5.806000000     0.662000000     1.491000000
C     5.676000000    -0.608000000     2.047000000
H     6.438000000    -1.374000000     1.922000000
C     4.619000000    -0.932000000     2.868000000
O     4.428000000    -2.191000000     3.326000000
C     3.750000000    -2.386000000     4.450000000
C     2.572000000    -3.140000000     4.453000000
H     2.145000000    -3.265000000     3.462000000
C     4.356000000    -2.235000000     5.715000000
H     5.381000000    -1.873000000     5.706000000
C     3.792000000    -2.840000000     6.857000000
H     4.251000000    -2.596000000     7.811000000
C     2.595000000    -3.483000000     6.763000000
H     2.145000000    -3.924000000     7.649000000
C     1.926000000    -3.640000000     5.572000000
O     0.779000000    -4.363000000     5.556000000
C    -0.319000000    -4.081000000     4.827000000
C    -1.042000000    -5.054000000     4.204000000
H    -0.860000000    -6.097000000     4.447000000
C    -2.011000000    -4.762000000     3.281000000
O    -2.790000000    -5.867000000     2.855000000
C    -3.660000000    -5.844000000     1.835000000
C    -3.275000000    -5.660000000     0.530000000
H    -2.252000000    -5.403000000     0.268000000
C    -4.951000000    -6.225000000     2.125000000
H    -5.135000000    -6.537000000     3.149000000
C    -5.880000000    -6.425000000     1.125000000
H    -6.813000000    -6.953000000     1.305000000
C    -5.507000000    -6.004000000    -0.212000000
H    -6.236000000    -5.998000000    -1.018000000
C    -4.209000000    -5.628000000    -0.465000000
O    -3.872000000    -5.392000000    -1.771000000
C    -3.215000000    -4.244000000    -2.141000000
C    -2.351000000    -4.412000000    -3.269000000
H    -2.133000000    -5.367000000    -3.740000000
C    -1.698000000    -3.245000000    -3.772000000
O    -0.781000000    -3.325000000    -4.811000000
C    -0.584000000    -2.384000000    -5.782000000
C    -1.647000000    -1.933000000    -6.496000000
H    -2.600000000    -2.454000000    -6.523000000
C    -1.502000000    -0.816000000    -7.255000000
H    -2.453000000    -0.496000000    -7.673000000
C    -0.264000000    -0.247000000    -7.473000000
H    -0.157000000     0.661000000    -8.060000000
C     0.860000000    -0.743000000    -6.810000000
C     0.635000000    -1.768000000    -5.878000000
H     1.452000000    -1.944000000    -5.183000000
C     2.476000000    -1.122000000    -0.245000000
H     3.553000000    -1.250000000    -0.325000000
C     1.885000000     0.094000000    -0.403000000
H     2.421000000     1.000000000    -0.673000000
C     0.541000000     0.243000000    -0.087000000
H     0.005000000     1.218000000    -0.130000000
C    -0.260000000    -0.855000000     0.011000000
H    -1.343000000    -0.809000000     0.087000000
C     0.283000000    -2.112000000     0.164000000
H    -0.310000000    -3.022000000     0.214000000
C     1.642000000    -2.243000000     0.032000000
C     2.326000000    -3.583000000    -0.007000000
O     1.741000000    -4.623000000     0.247000000
O     3.512000000    -3.620000000    -0.263000000
O     5.820000000    -2.751000000    -1.328000000
H     5.150000000    -3.217000000    -0.827000000
H     6.573000000    -2.709000000    -0.739000000
O     2.428000000    -6.396000000     1.958000000
H     3.347000000    -6.529000000     1.726000000
H     2.124000000    -5.716000000     1.356000000
O     3.617000000    -2.033000000    -3.357000000
H     3.050000000    -1.773000000    -2.631000000
H     4.456000000    -2.240000000    -2.944000000
O     6.367000000    -5.152000000    -2.661000000
H     6.627000000    -4.989000000    -1.754000000
H     5.893000000    -4.361000000    -2.920000000
O     3.580000000    -4.511000000    -5.329000000
H     2.832000000    -4.915000000    -4.889000000
H     3.744000000    -3.708000000    -4.836000000
O    -1.772000000    -8.340000000     0.401000000
H    -1.222000000    -9.020000000     0.012000000
H    -1.392000000    -7.518000000     0.092000000
O     0.943000000    -5.902000000    -5.741000000
H     0.855000000    -5.087000000    -6.235000000
H     1.552000000    -6.430000000    -6.256000000
O     0.407000000    -8.152000000     2.162000000
H    -0.307000000    -7.974000000     1.550000000
H     1.014000000    -7.422000000     2.041000000
O     6.402000000    -7.367000000     1.849000000
H     6.565000000    -7.364000000     2.793000000
H     6.000000000    -6.517000000     1.673000000
O     8.224000000    -3.222000000    -0.045000000
H     8.855000000    -3.226000000     0.674000000
H     8.752000000    -3.051000000    -0.826000000
O     4.200000000    -8.864000000     0.919000000
H     4.252000000    -9.127000000     0.000000000
H     5.075000000    -8.535000000     1.124000000
O     0.843000000    -7.259000000    -3.194000000
H     0.653000000    -6.952000000    -4.081000000
H     1.742000000    -6.974000000    -3.029000000
O    -0.175000000    -6.363000000    -0.693000000
H     0.224000000    -6.774000000    -1.460000000
H     0.400000000    -5.625000000    -0.491000000
O     2.943000000    -6.551000000    -1.436000000
H     3.264000000    -5.781000000    -0.967000000
H     2.424000000    -7.027000000    -0.787000000
O     6.944000000    -1.855000000    -4.651000000
H     6.294000000    -1.248000000    -4.296000000
H     6.950000000    -1.677000000    -5.591000000
O     4.224000000    -9.047000000    -1.626000000
H     3.565000000    -9.534000000    -2.120000000
H     4.089000000    -8.134000000    -1.881000000
O     6.962000000    -4.470000000     3.136000000
H     7.886000000    -4.582000000     2.914000000
H     6.969000000    -3.938000000     3.932000000
O     5.073000000    -5.233000000     1.262000000
H     4.601000000    -4.652000000     0.666000000
H     5.492000000    -4.644000000     1.889000000
O     2.276000000    -7.163000000     4.598000000
H     2.203000000    -6.579000000     3.843000000
H     2.683000000    -7.956000000     4.249000000
