215
-1446.24088
C     4.468000000     1.219000000     2.125000000
H     3.999000000     1.069000000     3.094000000
C     4.035000000     2.119000000     1.084000000
C     4.891000000     2.257000000    -0.065000000
H     4.612000000     2.988000000    -0.820000000
C     2.738000000     2.984000000     1.310000000
O     2.534000000     3.273000000     2.671000000
H     1.943000000     2.336000000     0.911000000
O     2.747000000     4.248000000     0.548000000
C     1.586000000     4.516000000    -0.140000000
C     1.500000000     4.142000000    -1.431000000
H     2.399000000     3.961000000    -2.014000000
C     0.257000000     4.185000000    -2.099000000
O     0.244000000     3.674000000    -3.420000000
C    -0.909000000     4.545000000    -1.412000000
C    -2.217000000     4.544000000    -2.073000000
H    -2.892000000     5.296000000    -1.659000000
C    -2.905000000     3.208000000    -1.938000000
C    -3.845000000     2.964000000    -0.949000000
H    -4.053000000     3.719000000    -0.195000000
H    -2.049000000     4.689000000    -3.142000000
C    -0.808000000     4.904000000    -0.113000000
H    -1.681000000     5.337000000     0.369000000
C     0.447000000     4.906000000     0.562000000
C     0.417000000     5.231000000     2.060000000
H    -0.360000000     5.969000000     2.268000000
H     1.366000000     5.701000000     2.327000000
C     0.222000000     3.923000000     2.864000000
C    -0.994000000     3.612000000     3.383000000
H    -1.820000000     4.287000000     3.174000000
C     1.317000000     3.092000000     3.173000000
C     1.044000000     1.878000000     3.788000000
H     1.842000000     1.142000000     3.842000000
C    -0.177000000     1.585000000     4.324000000
O    -0.294000000     0.349000000     4.847000000
C    -0.946000000    -0.729000000     4.063000000
C    -0.159000000    -2.029000000     4.192000000
C    -0.722000000    -3.179000000     3.603000000
H    -1.669000000    -3.100000000     3.075000000
C     1.136000000    -2.089000000     4.766000000
H     1.690000000    -1.209000000     5.083000000
O    -2.351000000    -0.900000000     4.328000000
H    -0.858000000    -0.405000000     3.016000000
C    -1.231000000     2.468000000     4.106000000
C    -2.626000000     2.017000000     4.425000000
H    -3.297000000     2.876000000     4.487000000
H    -2.711000000     1.495000000     5.380000000
C    -3.222000000     1.066000000     3.364000000
C    -3.934000000     1.657000000     2.347000000
H    -4.016000000     2.741000000     2.318000000
C    -3.233000000    -0.312000000     3.491000000
C    -3.873000000    -1.061000000     2.546000000
H    -3.666000000    -2.125000000     2.472000000
C    -4.473000000    -0.504000000     1.489000000
O    -4.935000000    -1.333000000     0.455000000
C    -4.168000000    -1.335000000    -0.781000000
C    -3.782000000    -2.750000000    -1.334000000
C    -3.850000000    -3.834000000    -0.553000000
H    -4.003000000    -3.777000000     0.522000000
C    -3.344000000    -2.965000000    -2.708000000
H    -3.342000000    -2.179000000    -3.459000000
O    -4.764000000    -0.454000000    -1.772000000
H    -3.233000000    -0.841000000    -0.477000000
C    -4.616000000     0.900000000     1.356000000
C    -5.455000000     1.404000000     0.220000000
H    -6.038000000     2.226000000     0.640000000
H    -6.188000000     0.648000000    -0.068000000
C    -4.499000000     1.744000000    -0.906000000
C    -4.243000000     0.789000000    -1.903000000
C    -3.196000000     0.906000000    -2.822000000
H    -2.968000000     0.253000000    -3.660000000
C    -2.610000000     2.137000000    -2.824000000
O    -1.684000000     2.346000000    -3.859000000
C    -0.276000000     2.303000000    -3.571000000
H    -0.115000000     1.790000000    -2.611000000
C     0.591000000     1.487000000    -4.543000000
C     2.026000000     1.731000000    -4.600000000
H     2.467000000     2.535000000    -4.016000000
C     0.038000000     0.353000000    -5.218000000
H    -1.007000000     0.059000000    -5.180000000
C     0.905000000    -0.418000000    -6.014000000
O     0.401000000    -1.431000000    -6.758000000
C     2.302000000    -0.191000000    -6.038000000
H     2.888000000    -0.850000000    -6.674000000
C     2.783000000     0.885000000    -5.364000000
O     4.171000000     1.138000000    -5.541000000
C     4.928000000     1.855000000    -4.616000000
C     5.436000000     1.246000000    -3.497000000
H     5.163000000     0.219000000    -3.269000000
C     5.324000000     3.156000000    -4.940000000
H     4.762000000     3.654000000    -5.725000000
C     6.094000000     3.920000000    -4.073000000
H     6.313000000     4.959000000    -4.306000000
C     6.606000000     3.327000000    -2.939000000
H     7.298000000     3.796000000    -2.243000000
C     6.315000000     1.979000000    -2.609000000
O     6.725000000     1.448000000    -1.439000000
C     5.928000000     1.364000000    -0.287000000
C     6.273000000     0.524000000     0.721000000
H     7.178000000    -0.059000000     0.574000000
C     5.590000000     0.448000000     1.924000000
O     6.101000000    -0.302000000     2.949000000
C     5.541000000    -0.735000000     4.103000000
C     4.595000000    -1.768000000     4.032000000
H     4.316000000    -2.115000000     3.040000000
C     5.992000000    -0.206000000     5.287000000
H     6.841000000     0.466000000     5.197000000
C     5.439000000    -0.768000000     6.456000000
H     5.625000000    -0.308000000     7.423000000
C     4.541000000    -1.855000000     6.392000000
H     4.021000000    -2.227000000     7.270000000
C     4.130000000    -2.374000000     5.176000000
O     3.203000000    -3.404000000     5.128000000
C     1.846000000    -3.269000000     4.803000000
C     1.247000000    -4.412000000     4.247000000
H     1.863000000    -5.302000000     4.151000000
C    -0.020000000    -4.422000000     3.751000000
O    -0.497000000    -5.603000000     3.197000000
C    -1.821000000    -5.810000000     2.884000000
C    -2.186000000    -5.801000000     1.539000000
H    -1.338000000    -5.734000000     0.863000000
C    -2.803000000    -6.171000000     3.857000000
H    -2.452000000    -6.229000000     4.884000000
C    -4.109000000    -6.436000000     3.487000000
H    -4.842000000    -6.712000000     4.241000000
C    -4.429000000    -6.350000000     2.104000000
H    -5.415000000    -6.505000000     1.673000000
C    -3.434000000    -6.181000000     1.154000000
O    -3.651000000    -6.212000000    -0.199000000
C    -3.462000000    -5.129000000    -0.966000000
C    -2.929000000    -5.282000000    -2.226000000
H    -2.644000000    -6.250000000    -2.630000000
C    -3.005000000    -4.227000000    -3.150000000
O    -2.517000000    -4.448000000    -4.395000000
C    -2.329000000    -3.435000000    -5.334000000
C    -3.403000000    -2.960000000    -6.106000000
H    -4.429000000    -3.312000000    -6.036000000
C    -3.208000000    -1.991000000    -7.072000000
H    -4.035000000    -1.537000000    -7.612000000
C    -1.954000000    -1.446000000    -7.349000000
H    -1.862000000    -0.575000000    -7.992000000
C    -0.882000000    -1.926000000    -6.604000000
C    -1.041000000    -2.992000000    -5.596000000
H    -0.184000000    -3.389000000    -5.058000000
C     3.299000000    -1.836000000    -1.058000000
H     4.071000000    -1.999000000    -1.806000000
C     2.409000000    -0.830000000    -1.254000000
H     2.542000000    -0.261000000    -2.170000000
C     1.398000000    -0.622000000    -0.344000000
H     0.719000000     0.162000000    -0.663000000
C     1.354000000    -1.371000000     0.841000000
H     0.611000000    -1.135000000     1.599000000
C     2.353000000    -2.348000000     1.056000000
H     2.310000000    -2.975000000     1.943000000
C     3.286000000    -2.626000000     0.124000000
C     4.266000000    -3.783000000     0.372000000
O     4.087000000    -4.689000000     1.118000000
O     5.267000000    -3.813000000    -0.364000000
O     4.761000000    -2.201000000    -4.819000000
H     4.787000000    -1.326000000    -5.206000000
H     5.555000000    -2.251000000    -4.286000000
O     1.859000000    -6.016000000     0.856000000
H     2.679000000    -5.622000000     1.153000000
H     1.590000000    -5.477000000     0.112000000
O     5.790000000    -6.412000000    -5.238000000
H     5.561000000    -5.975000000    -4.418000000
H     5.641000000    -7.342000000    -5.064000000
O     7.712000000    -6.233000000    -0.847000000
H     7.981000000    -5.914000000     0.015000000
H     6.760000000    -6.141000000    -0.850000000
O     4.568000000    -5.402000000    -2.587000000
H     4.214000000    -6.265000000    -2.374000000
H     4.905000000    -5.069000000    -1.755000000
O     9.968000000    -5.238000000     1.675000000
H     9.242000000    -4.648000000     1.880000000
H    10.561000000    -5.156000000     2.422000000
O     0.330000000    -6.936000000    -1.786000000
H    -0.097000000    -7.416000000    -1.077000000
H     0.294000000    -6.020000000    -1.512000000
O     7.986000000    -3.176000000     0.023000000
H     7.034000000    -3.267000000     0.057000000
H     8.258000000    -3.155000000     0.941000000
O     7.353000000    -6.563000000     4.469000000
H     6.904000000    -7.200000000     5.024000000
H     6.663000000    -5.964000000     4.184000000
O     2.903000000    -7.621000000    -2.418000000
H     2.052000000    -7.410000000    -2.034000000
H     2.962000000    -8.575000000    -2.359000000
O     7.210000000    -8.860000000    -1.337000000
H     6.328000000    -9.039000000    -1.011000000
H     7.383000000    -7.955000000    -1.077000000
O     0.625000000    -4.298000000    -1.343000000
H     0.926000000    -3.671000000    -0.685000000
H     1.245000000    -4.202000000    -2.067000000
O     9.547000000    -2.195000000    -1.875000000
H     8.952000000    -2.555000000    -1.219000000
H    10.141000000    -2.917000000    -2.083000000
O     8.195000000    -3.666000000     2.790000000
H     7.567000000    -4.181000000     3.295000000
H     8.560000000    -3.046000000     3.421000000
O     4.971000000    -7.119000000    -0.096000000
H     4.175000000    -7.645000000    -0.171000000
H     4.662000000    -6.254000000     0.174000000
O     5.301000000    -5.109000000     3.445000000
H     4.921000000    -4.861000000     2.603000000
H     4.951000000    -4.468000000     4.064000000
O     7.069000000    -2.022000000    -3.335000000
H     7.531000000    -1.580000000    -2.623000000
H     7.080000000    -2.947000000    -3.090000000
O     2.341000000    -3.951000000    -3.581000000
H     2.748000000    -3.198000000    -4.011000000
H     3.078000000    -4.490000000    -3.295000000
O     4.098000000    -7.609000000     3.210000000
H     4.500000000    -6.744000000     3.298000000
H     3.588000000    -7.554000000     2.402000000
