215
-1459.72442
C     3.863000000     0.599000000     1.504000000
H     3.137000000     0.237000000     2.227000000
C     3.815000000     1.911000000     1.006000000
C     4.773000000     2.341000000     0.031000000
H     4.688000000     3.332000000    -0.407000000
C     2.716000000     2.832000000     1.477000000
O     2.658000000     2.892000000     2.915000000
H     1.770000000     2.377000000     1.148000000
O     2.844000000     4.158000000     0.959000000
C     1.719000000     4.697000000     0.254000000
C     1.722000000     4.631000000    -1.141000000
H     2.642000000     4.283000000    -1.604000000
C     0.496000000     4.578000000    -1.792000000
O     0.596000000     3.999000000    -3.027000000
C    -0.744000000     4.806000000    -1.142000000
C    -2.108000000     4.947000000    -1.829000000
H    -2.641000000     5.687000000    -1.229000000
C    -2.785000000     3.605000000    -1.828000000
C    -3.650000000     3.227000000    -0.808000000
H    -3.872000000     3.879000000     0.033000000
H    -2.027000000     5.296000000    -2.861000000
C    -0.690000000     5.093000000     0.259000000
H    -1.564000000     5.400000000     0.828000000
C     0.497000000     4.945000000     0.940000000
C     0.519000000     5.058000000     2.498000000
H    -0.301000000     5.621000000     2.950000000
H     1.481000000     5.502000000     2.760000000
C     0.380000000     3.693000000     3.167000000
C    -0.943000000     3.374000000     3.504000000
H    -1.727000000     4.052000000     3.178000000
C     1.407000000     2.807000000     3.468000000
C     1.068000000     1.616000000     4.190000000
H     1.895000000     0.960000000     4.450000000
C    -0.203000000     1.439000000     4.682000000
O    -0.386000000     0.227000000     5.290000000
C    -1.064000000    -0.809000000     4.415000000
C    -0.449000000    -2.159000000     4.637000000
C    -1.274000000    -3.269000000     4.532000000
H    -2.337000000    -3.155000000     4.336000000
C     0.963000000    -2.306000000     4.699000000
H     1.645000000    -1.462000000     4.761000000
O    -2.467000000    -0.776000000     4.603000000
H    -0.878000000    -0.486000000     3.380000000
C    -1.236000000     2.189000000     4.222000000
C    -2.675000000     1.926000000     4.697000000
H    -3.107000000     2.928000000     4.747000000
H    -2.827000000     1.611000000     5.732000000
C    -3.451000000     1.104000000     3.660000000
C    -4.081000000     1.736000000     2.596000000
H    -4.312000000     2.795000000     2.675000000
C    -3.242000000    -0.279000000     3.654000000
C    -3.668000000    -0.986000000     2.540000000
H    -3.495000000    -2.052000000     2.417000000
C    -4.279000000    -0.410000000     1.434000000
O    -4.602000000    -1.257000000     0.367000000
C    -3.669000000    -1.121000000    -0.714000000
C    -3.376000000    -2.588000000    -1.323000000
C    -3.206000000    -3.701000000    -0.444000000
H    -3.492000000    -3.544000000     0.593000000
C    -3.070000000    -2.727000000    -2.686000000
H    -3.292000000    -1.897000000    -3.351000000
O    -4.310000000    -0.339000000    -1.758000000
H    -2.760000000    -0.616000000    -0.355000000
C    -4.477000000     0.971000000     1.438000000
C    -5.234000000     1.658000000     0.280000000
H    -5.822000000     2.530000000     0.576000000
H    -5.997000000     1.035000000    -0.190000000
C    -4.224000000     1.941000000    -0.837000000
C    -3.974000000     1.039000000    -1.873000000
C    -3.051000000     1.453000000    -2.858000000
H    -2.757000000     0.762000000    -3.643000000
C    -2.528000000     2.711000000    -2.886000000
O    -1.523000000     3.002000000    -3.784000000
C    -0.172000000     2.816000000    -3.297000000
H    -0.320000000     2.107000000    -2.468000000
C     0.695000000     1.962000000    -4.270000000
C     2.074000000     2.061000000    -4.352000000
H     2.590000000     2.650000000    -3.598000000
C     0.057000000     0.890000000    -4.936000000
H    -0.967000000     0.535000000    -4.843000000
C     0.800000000     0.137000000    -5.884000000
O     0.246000000    -0.881000000    -6.654000000
C     2.141000000     0.394000000    -6.099000000
H     2.743000000    -0.101000000    -6.856000000
C     2.777000000     1.271000000    -5.273000000
O     4.126000000     1.343000000    -5.435000000
C     5.000000000     2.057000000    -4.665000000
C     5.333000000     1.616000000    -3.445000000
H     4.827000000     0.772000000    -2.983000000
C     5.614000000     3.178000000    -5.254000000
H     5.347000000     3.521000000    -6.250000000
C     6.658000000     3.825000000    -4.519000000
H     7.220000000     4.634000000    -4.978000000
C     6.903000000     3.400000000    -3.181000000
H     7.759000000     3.751000000    -2.611000000
C     6.274000000     2.312000000    -2.669000000
O     6.588000000     1.849000000    -1.419000000
C     5.670000000     1.433000000    -0.477000000
C     5.687000000     0.129000000     0.003000000
H     6.445000000    -0.570000000    -0.341000000
C     4.838000000    -0.279000000     0.999000000
O     5.017000000    -1.591000000     1.395000000
C     4.905000000    -1.962000000     2.680000000
C     3.844000000    -2.713000000     3.106000000
H     2.997000000    -2.890000000     2.448000000
C     5.931000000    -1.552000000     3.560000000
H     6.724000000    -0.888000000     3.226000000
C     5.928000000    -2.006000000     4.883000000
H     6.770000000    -1.754000000     5.522000000
C     4.872000000    -2.819000000     5.287000000
H     4.837000000    -3.279000000     6.271000000
C     3.826000000    -3.165000000     4.413000000
O     2.786000000    -3.951000000     4.883000000
C     1.475000000    -3.578000000     4.826000000
C     0.572000000    -4.706000000     4.840000000
H     0.925000000    -5.714000000     5.041000000
C    -0.779000000    -4.521000000     4.578000000
O    -1.600000000    -5.606000000     4.530000000
C    -2.391000000    -5.943000000     3.420000000
C    -2.189000000    -5.598000000     2.053000000
H    -1.364000000    -4.945000000     1.780000000
C    -3.553000000    -6.743000000     3.675000000
H    -3.769000000    -7.085000000     4.684000000
C    -4.325000000    -7.323000000     2.668000000
H    -5.159000000    -7.979000000     2.904000000
C    -4.016000000    -7.027000000     1.363000000
H    -4.568000000    -7.403000000     0.506000000
C    -2.954000000    -6.169000000     1.094000000
O    -2.505000000    -6.024000000    -0.146000000
C    -2.701000000    -4.888000000    -0.952000000
C    -2.487000000    -5.011000000    -2.334000000
H    -2.138000000    -5.972000000    -2.704000000
C    -2.748000000    -3.960000000    -3.223000000
O    -2.571000000    -4.097000000    -4.589000000
C    -2.354000000    -2.960000000    -5.330000000
C    -3.522000000    -2.376000000    -5.922000000
H    -4.485000000    -2.820000000    -5.680000000
C    -3.298000000    -1.192000000    -6.643000000
H    -4.137000000    -0.660000000    -7.085000000
C    -2.027000000    -0.703000000    -6.886000000
H    -1.871000000     0.136000000    -7.559000000
C    -0.962000000    -1.430000000    -6.431000000
C    -1.097000000    -2.525000000    -5.605000000
H    -0.277000000    -3.028000000    -5.098000000
C     2.155000000    -0.048000000    -1.296000000
H     3.094000000     0.067000000    -1.832000000
C     1.401000000     1.080000000    -0.956000000
H     1.628000000     2.094000000    -1.276000000
C     0.322000000     0.964000000    -0.157000000
H    -0.288000000     1.863000000     0.162000000
C    -0.109000000    -0.217000000     0.345000000
H    -0.954000000    -0.287000000     1.026000000
C     0.683000000    -1.358000000     0.048000000
H     0.510000000    -2.308000000     0.548000000
C     1.798000000    -1.355000000    -0.860000000
C     2.618000000    -2.593000000    -1.047000000
O     2.285000000    -3.616000000    -0.462000000
O     3.389000000    -2.577000000    -1.928000000
O     3.610000000    -1.895000000    -4.369000000
H     3.580000000    -2.227000000    -3.471000000
H     4.082000000    -1.065000000    -4.301000000
O     1.569000000    -5.691000000     0.960000000
H     1.597000000    -4.808000000     0.591000000
H     2.486000000    -5.960000000     1.007000000
O     5.025000000    -6.138000000     2.550000000
H     4.599000000    -5.871000000     1.736000000
H     5.827000000    -5.617000000     2.584000000
O     4.171000000    -5.239000000    -3.381000000
H     3.997000000    -4.639000000    -2.656000000
H     3.446000000    -5.097000000    -3.989000000
O     6.607000000    -4.971000000    -5.087000000
H     5.722000000    -5.011000000    -4.723000000
H     6.526000000    -5.364000000    -5.956000000
O     2.119000000    -2.979000000    -6.503000000
H     1.272000000    -2.532000000    -6.517000000
H     2.626000000    -2.510000000    -5.841000000
O     0.638000000    -6.102000000    -4.830000000
H     0.530000000    -5.507000000    -4.087000000
H     0.177000000    -6.898000000    -4.568000000
O     1.946000000    -8.143000000    -0.971000000
H     1.820000000    -7.397000000    -1.558000000
H     2.875000000    -8.113000000    -0.741000000
O     7.006000000    -4.375000000    -0.396000000
H     7.064000000    -3.624000000    -0.986000000
H     7.352000000    -4.051000000     0.437000000
O     5.033000000    -2.163000000    -6.694000000
H     4.450000000    -2.164000000    -5.935000000
H     5.177000000    -3.090000000    -6.886000000
O     0.674000000    -5.213000000    -2.205000000
H     0.733000000    -5.166000000    -1.251000000
H     1.289000000    -4.548000000    -2.515000000
O     6.406000000    -2.380000000    -2.204000000
H     5.463000000    -2.485000000    -2.071000000
H     6.478000000    -1.877000000    -3.015000000
O     4.952000000    -7.623000000    -4.003000000
H     5.425000000    -7.830000000    -3.197000000
H     4.511000000    -6.794000000    -3.815000000
O     7.277000000    -5.826000000    -2.725000000
H     7.139000000    -5.547000000    -3.630000000
H     6.610000000    -5.355000000    -2.225000000
O    -0.454000000    -7.795000000     0.751000000
H    -0.005000000    -6.950000000     0.739000000
H     0.132000000    -8.384000000     0.276000000
O     4.402000000    -4.929000000     0.286000000
H     5.121000000    -4.646000000    -0.278000000
H     3.696000000    -4.309000000     0.103000000
O     6.693000000    -1.279000000    -4.562000000
H     6.427000000    -1.703000000    -5.378000000
H     7.024000000    -0.423000000    -4.834000000
O     3.424000000    -5.328000000    -6.224000000
H     3.145000000    -4.674000000    -6.866000000
H     2.609000000    -5.642000000    -5.832000000
O     1.453000000    -7.766000000     3.054000000
H     0.702000000    -8.238000000     3.414000000
H     1.065000000    -7.065000000     2.529000000
