215
-1466.01465
C     4.768000000     2.351000000     1.482000000
H     4.335000000     1.835000000     2.335000000
C     4.016000000     3.359000000     0.824000000
C     4.453000000     3.884000000    -0.321000000
H     3.838000000     4.592000000    -0.871000000
C     2.544000000     3.553000000     1.195000000
O     2.448000000     3.676000000     2.575000000
H     2.008000000     2.649000000     0.870000000
O     1.934000000     4.699000000     0.523000000
C     0.637000000     4.647000000     0.179000000
C     0.413000000     4.399000000    -1.183000000
H     1.289000000     4.244000000    -1.808000000
C    -0.820000000     4.317000000    -1.715000000
O    -0.887000000     3.835000000    -2.988000000
C    -1.920000000     4.531000000    -0.843000000
C    -3.282000000     4.348000000    -1.400000000
H    -4.029000000     4.951000000    -0.879000000
C    -3.853000000     2.912000000    -1.417000000
C    -4.443000000     2.371000000    -0.243000000
H    -4.753000000     2.987000000     0.597000000
H    -3.306000000     4.789000000    -2.399000000
C    -1.743000000     4.760000000     0.493000000
H    -2.651000000     4.872000000     1.081000000
C    -0.446000000     4.809000000     1.015000000
C    -0.261000000     5.103000000     2.478000000
H    -1.243000000     5.368000000     2.875000000
H     0.532000000     5.835000000     2.644000000
C     0.088000000     3.780000000     3.177000000
C    -1.060000000     3.205000000     3.815000000
H    -2.054000000     3.645000000     3.813000000
C     1.347000000     3.200000000     3.233000000
C     1.404000000     1.941000000     3.856000000
H     2.381000000     1.486000000     3.994000000
C     0.304000000     1.284000000     4.278000000
O     0.518000000    -0.067000000     4.720000000
C    -0.040000000    -1.182000000     4.012000000
C     0.881000000    -2.372000000     4.033000000
C     0.420000000    -3.686000000     3.908000000
H    -0.626000000    -3.806000000     4.180000000
C     2.271000000    -2.185000000     3.811000000
H     2.666000000    -1.182000000     3.950000000
O    -1.288000000    -1.536000000     4.569000000
H    -0.277000000    -1.023000000     2.950000000
C    -0.938000000     1.902000000     4.319000000
C    -2.124000000     1.225000000     4.925000000
H    -2.841000000     1.960000000     5.299000000
H    -1.928000000     0.551000000     5.762000000
C    -2.777000000     0.295000000     3.848000000
C    -3.799000000     0.763000000     3.038000000
H    -4.197000000     1.773000000     3.081000000
C    -2.408000000    -1.060000000     3.846000000
C    -3.093000000    -1.880000000     2.972000000
H    -2.852000000    -2.938000000     3.028000000
C    -3.998000000    -1.370000000     1.994000000
O    -4.339000000    -2.160000000     0.980000000
C    -3.729000000    -2.043000000    -0.304000000
C    -3.383000000    -3.340000000    -0.978000000
C    -2.998000000    -4.438000000    -0.239000000
H    -3.141000000    -4.518000000     0.836000000
C    -3.232000000    -3.392000000    -2.373000000
H    -3.556000000    -2.532000000    -2.953000000
O    -4.666000000    -1.229000000    -1.108000000
H    -2.848000000    -1.389000000    -0.220000000
C    -4.393000000    -0.078000000     2.072000000
C    -5.456000000     0.521000000     1.165000000
H    -5.973000000     1.364000000     1.629000000
H    -6.249000000    -0.194000000     0.936000000
C    -4.796000000     1.013000000    -0.092000000
C    -4.371000000     0.126000000    -1.095000000
C    -3.771000000     0.610000000    -2.240000000
H    -3.384000000    -0.094000000    -2.972000000
C    -3.457000000     1.988000000    -2.311000000
O    -2.605000000     2.298000000    -3.361000000
C    -1.170000000     2.379000000    -3.007000000
H    -0.955000000     1.890000000    -2.045000000
C    -0.337000000     1.706000000    -4.070000000
C     1.052000000     1.983000000    -4.122000000
H     1.577000000     2.613000000    -3.409000000
C    -0.879000000     0.666000000    -4.852000000
H    -1.939000000     0.429000000    -4.812000000
C    -0.015000000     0.077000000    -5.761000000
O    -0.479000000    -0.941000000    -6.595000000
C     1.289000000     0.396000000    -5.916000000
H     1.943000000    -0.052000000    -6.660000000
C     1.829000000     1.347000000    -5.050000000
O     3.189000000     1.621000000    -5.098000000
C     3.760000000     2.737000000    -4.651000000
C     4.579000000     2.768000000    -3.579000000
H     4.797000000     1.839000000    -3.057000000
C     3.614000000     3.947000000    -5.411000000
H     2.944000000     3.990000000    -6.265000000
C     4.216000000     5.126000000    -4.985000000
H     3.979000000     6.096000000    -5.415000000
C     5.093000000     5.074000000    -3.857000000
H     5.595000000     5.991000000    -3.560000000
C     5.226000000     3.909000000    -3.138000000
O     6.023000000     3.937000000    -2.033000000
C     5.697000000     3.447000000    -0.792000000
C     6.494000000     2.491000000    -0.160000000
H     7.427000000     2.146000000    -0.596000000
C     5.970000000     1.873000000     0.990000000
O     6.617000000     0.841000000     1.516000000
C     6.219000000     0.052000000     2.618000000
C     5.644000000    -1.237000000     2.363000000
H     5.501000000    -1.601000000     1.349000000
C     6.467000000     0.507000000     3.875000000
H     6.866000000     1.478000000     4.153000000
C     6.007000000    -0.233000000     4.950000000
H     5.964000000     0.273000000     5.911000000
C     5.287000000    -1.465000000     4.793000000
H     5.008000000    -2.009000000     5.692000000
C     5.156000000    -1.954000000     3.467000000
O     4.459000000    -3.067000000     3.265000000
C     3.117000000    -3.245000000     3.550000000
C     2.562000000    -4.490000000     3.370000000
H     3.197000000    -5.344000000     3.152000000
C     1.201000000    -4.718000000     3.575000000
O     0.723000000    -6.019000000     3.656000000
C    -0.464000000    -6.562000000     3.156000000
C    -0.759000000    -6.296000000     1.802000000
H    -0.055000000    -5.782000000     1.153000000
C    -1.308000000    -7.313000000     3.920000000
H    -1.204000000    -7.658000000     4.945000000
C    -2.476000000    -7.804000000     3.289000000
H    -3.089000000    -8.416000000     3.946000000
C    -2.794000000    -7.658000000     1.931000000
H    -3.664000000    -8.121000000     1.472000000
C    -1.915000000    -6.840000000     1.141000000
O    -2.092000000    -6.671000000    -0.234000000
C    -2.461000000    -5.512000000    -0.904000000
C    -2.171000000    -5.504000000    -2.237000000
H    -1.709000000    -6.322000000    -2.783000000
C    -2.587000000    -4.428000000    -2.981000000
O    -2.597000000    -4.682000000    -4.278000000
C    -2.618000000    -3.636000000    -5.231000000
C    -3.706000000    -3.532000000    -6.067000000
H    -4.471000000    -4.298000000    -5.967000000
C    -3.761000000    -2.580000000    -7.070000000
H    -4.583000000    -2.497000000    -7.776000000
C    -2.729000000    -1.593000000    -7.147000000
H    -2.658000000    -0.769000000    -7.853000000
C    -1.561000000    -1.769000000    -6.313000000
C    -1.526000000    -2.845000000    -5.400000000
H    -0.699000000    -3.081000000    -4.735000000
C     3.205000000     0.141000000    -1.076000000
H     4.029000000     0.528000000    -1.670000000
C     2.063000000     0.943000000    -0.929000000
H     2.017000000     1.902000000    -1.440000000
C     0.947000000     0.458000000    -0.271000000
H     0.102000000     1.127000000    -0.088000000
C     0.964000000    -0.872000000     0.208000000
H     0.087000000    -1.348000000     0.641000000
C     2.058000000    -1.694000000     0.057000000
H     2.073000000    -2.751000000     0.313000000
C     3.234000000    -1.172000000    -0.597000000
C     4.386000000    -2.048000000    -0.901000000
O     4.376000000    -3.097000000    -0.344000000
O     5.425000000    -1.717000000    -1.531000000
O     7.969000000    -2.990000000     1.458000000
H     8.316000000    -2.445000000     2.164000000
H     7.457000000    -3.664000000     1.905000000
O     6.170000000    -6.723000000    -5.157000000
H     6.923000000    -6.876000000    -4.587000000
H     5.863000000    -5.848000000    -4.919000000
O     2.910000000    -5.464000000     0.257000000
H     3.314000000    -4.601000000     0.172000000
H     2.176000000    -5.446000000    -0.357000000
O     1.169000000    -2.279000000    -2.970000000
H     1.514000000    -2.024000000    -3.826000000
H     1.402000000    -1.553000000    -2.392000000
O     9.303000000    -4.880000000    -2.669000000
H     9.536000000    -5.008000000    -1.749000000
H     8.677000000    -4.156000000    -2.660000000
O     9.930000000    -1.217000000    -1.907000000
H    10.234000000    -1.998000000    -1.444000000
H     9.052000000    -1.446000000    -2.211000000
O     6.285000000    -3.750000000    -4.127000000
H     6.418000000    -4.282000000    -3.342000000
H     5.899000000    -2.937000000    -3.802000000
O     3.942000000    -7.896000000     0.795000000
H     3.811000000    -7.085000000     0.303000000
H     3.231000000    -8.468000000     0.508000000
O     7.833000000    -2.903000000    -1.204000000
H     7.104000000    -2.292000000    -1.310000000
H     7.955000000    -2.968000000    -0.257000000
O     7.503000000    -6.178000000     0.163000000
H     8.157000000    -5.612000000     0.572000000
H     7.617000000    -7.026000000     0.592000000
O     3.035000000    -6.093000000    -4.513000000
H     2.614000000    -5.698000000    -5.277000000
H     3.592000000    -6.783000000    -4.876000000
O     3.210000000    -2.343000000    -4.818000000
H     3.295000000    -3.295000000    -4.770000000
H     3.953000000    -2.011000000    -4.315000000
O     0.705000000    -4.614000000    -1.224000000
H     0.921000000    -4.096000000    -2.000000000
H    -0.112000000    -4.234000000    -0.902000000
O     8.151000000    -2.479000000    -5.817000000
H     7.642000000    -2.274000000    -6.601000000
H     7.496000000    -2.721000000    -5.162000000
O     5.771000000    -5.030000000    -1.601000000
H     5.171000000    -4.387000000    -1.223000000
H     6.533000000    -5.017000000    -1.023000000
O     5.678000000    -0.933000000    -3.971000000
H     5.870000000     0.004000000    -3.987000000
H     5.774000000    -1.181000000    -3.051000000
O     6.607000000    -4.858000000     3.210000000
H     6.058000000    -5.628000000     3.058000000
H     6.004000000    -4.117000000     3.144000000
O     3.988000000    -1.263000000    -7.381000000
H     3.733000000    -1.723000000    -6.582000000
H     4.871000000    -1.582000000    -7.570000000
O     4.219000000    -7.374000000    -2.206000000
H     3.672000000    -6.736000000    -2.665000000
H     5.009000000    -6.888000000    -1.970000000
