215
-1461.46964
C     4.196000000    -0.429000000    -2.789000000
H     4.029000000    -1.480000000    -2.567000000
C     4.154000000     0.400000000    -1.717000000
C     4.191000000     1.781000000    -1.870000000
H     4.193000000     2.499000000    -1.054000000
C     4.022000000    -0.084000000    -0.286000000
O     4.606000000    -1.422000000    -0.201000000
H     2.961000000    -0.172000000    -0.008000000
O     4.670000000     0.762000000     0.700000000
C     3.956000000     0.888000000     1.881000000
C     3.298000000     2.063000000     2.105000000
H     3.371000000     2.820000000     1.328000000
C     2.340000000     2.232000000     3.082000000
O     1.599000000     3.384000000     2.933000000
C     2.222000000     1.325000000     4.106000000
C     1.298000000     1.533000000     5.269000000
H     1.671000000     0.939000000     6.106000000
C    -0.086000000     1.184000000     4.853000000
C    -0.503000000    -0.157000000     4.956000000
H     0.160000000    -0.862000000     5.451000000
H     1.335000000     2.490000000     5.794000000
C     3.026000000     0.186000000     3.990000000
H     2.988000000    -0.641000000     4.695000000
C     3.853000000    -0.074000000     2.900000000
C     4.615000000    -1.387000000     2.736000000
H     4.691000000    -1.831000000     3.730000000
H     5.607000000    -1.182000000     2.328000000
C     3.784000000    -2.356000000     1.892000000
C     2.892000000    -3.325000000     2.389000000
H     2.705000000    -3.411000000     3.456000000
C     3.943000000    -2.407000000     0.513000000
C     3.276000000    -3.356000000    -0.271000000
H     3.536000000    -3.460000000    -1.321000000
C     2.318000000    -4.222000000     0.244000000
O     1.488000000    -4.849000000    -0.699000000
C     0.158000000    -4.326000000    -1.032000000
C    -0.191000000    -4.476000000    -2.455000000
C    -1.546000000    -4.491000000    -2.831000000
H    -2.254000000    -4.541000000    -2.008000000
C     0.832000000    -4.360000000    -3.383000000
H     1.816000000    -4.243000000    -2.936000000
O    -0.779000000    -4.930000000    -0.070000000
H     0.166000000    -3.289000000    -0.665000000
C     2.141000000    -4.221000000     1.623000000
C     1.032000000    -5.009000000     2.228000000
H     1.290000000    -5.071000000     3.287000000
H     0.950000000    -6.031000000     1.853000000
C    -0.353000000    -4.332000000     2.172000000
C    -0.737000000    -3.556000000     3.294000000
H    -0.058000000    -3.575000000     4.143000000
C    -1.150000000    -4.259000000     1.064000000
C    -2.417000000    -3.621000000     1.172000000
H    -3.161000000    -3.696000000     0.383000000
C    -2.834000000    -2.884000000     2.269000000
O    -3.910000000    -2.061000000     2.109000000
C    -3.581000000    -0.649000000     1.916000000
C    -4.394000000     0.081000000     0.826000000
C    -4.563000000    -0.581000000    -0.355000000
H    -4.105000000    -1.539000000    -0.587000000
C    -4.917000000     1.334000000     0.892000000
H    -4.935000000     1.853000000     1.846000000
O    -3.758000000     0.006000000     3.194000000
H    -2.505000000    -0.697000000     1.695000000
C    -1.886000000    -2.798000000     3.319000000
C    -2.187000000    -2.035000000     4.608000000
H    -1.520000000    -2.430000000     5.377000000
H    -3.253000000    -2.105000000     4.831000000
C    -1.763000000    -0.597000000     4.420000000
C    -2.593000000     0.330000000     3.829000000
C    -2.212000000     1.685000000     3.745000000
H    -2.923000000     2.382000000     3.309000000
C    -1.021000000     2.130000000     4.263000000
O    -0.577000000     3.339000000     3.777000000
C     0.155000000     3.311000000     2.542000000
H     0.040000000     2.378000000     1.970000000
C    -0.169000000     4.462000000     1.652000000
C     0.732000000     4.884000000     0.686000000
H     1.642000000     4.294000000     0.608000000
C    -1.407000000     5.118000000     1.775000000
H    -2.187000000     4.681000000     2.393000000
C    -1.706000000     6.190000000     0.905000000
O    -2.951000000     6.867000000     1.047000000
C    -0.800000000     6.640000000    -0.095000000
H    -1.019000000     7.453000000    -0.783000000
C     0.453000000     6.004000000    -0.125000000
O     1.338000000     6.379000000    -1.048000000
C     2.581000000     5.853000000    -1.109000000
C     2.947000000     5.157000000    -2.255000000
H     2.226000000     5.036000000    -3.059000000
C     3.547000000     6.065000000    -0.069000000
H     3.241000000     6.571000000     0.843000000
C     4.859000000     5.569000000    -0.251000000
H     5.536000000     5.655000000     0.596000000
C     5.188000000     4.764000000    -1.340000000
H     6.152000000     4.275000000    -1.448000000
C     4.207000000     4.586000000    -2.373000000
O     4.448000000     3.688000000    -3.320000000
C     4.376000000     2.321000000    -3.134000000
C     4.680000000     1.448000000    -4.205000000
H     5.013000000     1.798000000    -5.178000000
C     4.520000000     0.067000000    -4.063000000
O     4.690000000    -0.789000000    -5.180000000
C     4.345000000    -2.127000000    -5.229000000
C     2.998000000    -2.491000000    -5.380000000
H     2.257000000    -1.713000000    -5.545000000
C     5.366000000    -3.024000000    -5.076000000
H     6.400000000    -2.699000000    -4.994000000
C     5.066000000    -4.365000000    -4.963000000
H     5.963000000    -4.942000000    -4.754000000
C     3.752000000    -4.801000000    -5.272000000
H     3.533000000    -5.845000000    -5.063000000
C     2.744000000    -3.846000000    -5.545000000
O     1.427000000    -4.267000000    -5.724000000
C     0.444000000    -4.385000000    -4.724000000
C    -0.884000000    -4.553000000    -5.100000000
H    -1.146000000    -4.483000000    -6.153000000
C    -1.906000000    -4.516000000    -4.169000000
O    -3.233000000    -4.551000000    -4.482000000
C    -4.259000000    -3.962000000    -3.720000000
C    -4.169000000    -2.564000000    -3.487000000
H    -3.230000000    -2.072000000    -3.722000000
C    -5.405000000    -4.662000000    -3.435000000
H    -5.495000000    -5.697000000    -3.753000000
C    -6.512000000    -3.989000000    -2.888000000
H    -7.498000000    -4.438000000    -2.799000000
C    -6.404000000    -2.609000000    -2.594000000
H    -7.351000000    -2.126000000    -2.367000000
C    -5.262000000    -1.959000000    -2.818000000
O    -5.263000000    -0.588000000    -2.603000000
C    -5.209000000     0.008000000    -1.407000000
C    -5.676000000     1.338000000    -1.308000000
H    -6.119000000     1.838000000    -2.165000000
C    -5.516000000     2.071000000    -0.124000000
O    -6.072000000     3.283000000     0.151000000
C    -5.562000000     4.288000000     0.896000000
C    -6.153000000     4.500000000     2.173000000
H    -7.032000000     3.918000000     2.439000000
C    -5.767000000     5.556000000     2.964000000
H    -6.223000000     5.729000000     3.935000000
C    -4.751000000     6.388000000     2.537000000
H    -4.407000000     7.059000000     3.320000000
C    -4.149000000     6.212000000     1.269000000
C    -4.596000000     5.203000000     0.423000000
H    -4.093000000     5.012000000    -0.521000000
C    -0.814000000    -0.487000000    -2.221000000
H    -1.342000000    -1.316000000    -2.685000000
C    -0.793000000    -0.408000000    -0.856000000
H    -1.427000000    -1.052000000    -0.252000000
C     0.022000000     0.500000000    -0.204000000
H    -0.053000000     0.485000000     0.859000000
C     0.813000000     1.383000000    -0.979000000
H     1.466000000     2.086000000    -0.469000000
C     0.852000000     1.203000000    -2.375000000
H     1.482000000     1.822000000    -3.009000000
C     0.076000000     0.241000000    -2.993000000
C     0.143000000     0.258000000    -4.476000000
O     0.801000000     1.060000000    -5.170000000
O    -0.490000000    -0.671000000    -5.028000000
O     2.029000000     0.401000000    -7.499000000
H     1.158000000     0.126000000    -7.788000000
H     1.910000000     0.644000000    -6.581000000
O    -2.432000000    -1.821000000    -6.496000000
H    -1.907000000    -1.912000000    -7.292000000
H    -1.850000000    -1.383000000    -5.875000000
O     0.284000000    -3.327000000    -9.111000000
H     0.044000000    -2.469000000    -8.762000000
H    -0.232000000    -3.948000000    -8.598000000
O    -1.151000000     5.059000000    -7.807000000
H    -0.279000000     5.130000000    -8.195000000
H    -1.691000000     4.679000000    -8.500000000
O    -2.842000000     2.758000000    -3.292000000
H    -3.019000000     2.039000000    -3.899000000
H    -2.208000000     2.397000000    -2.673000000
O    -4.175000000     1.164000000    -7.678000000
H    -5.062000000     0.934000000    -7.401000000
H    -3.797000000     0.339000000    -7.983000000
O    -3.636000000    -1.103000000    -9.250000000
H    -3.154000000    -1.882000000    -8.973000000
H    -3.920000000    -1.301000000   -10.142000000
O    -0.621000000    -0.916000000    -8.772000000
H    -0.338000000    -0.564000000    -9.616000000
H    -1.090000000    -0.192000000    -8.355000000
O     1.795000000     3.579000000    -5.742000000
H     1.148000000     4.042000000    -5.209000000
H     1.695000000     2.659000000    -5.495000000
O     2.346000000     2.349000000    -9.495000000
H     1.685000000     1.797000000    -9.915000000
H     2.632000000     1.843000000    -8.734000000
O     4.922000000    -0.391000000    -8.022000000
H     4.015000000    -0.097000000    -8.110000000
H     5.033000000    -0.550000000    -7.085000000
O    -1.135000000     1.980000000    -6.861000000
H    -1.007000000     2.917000000    -6.716000000
H    -0.463000000     1.560000000    -6.324000000
O    -5.572000000     0.578000000    -5.019000000
H    -4.673000000     0.828000000    -5.231000000
H    -5.525000000     0.256000000    -4.119000000
O    -5.287000000    -2.574000000    -6.451000000
H    -4.346000000    -2.404000000    -6.396000000
H    -5.695000000    -1.749000000    -6.188000000
O    -2.407000000     2.876000000    -8.971000000
H    -1.829000000     2.608000000    -8.256000000
H    -3.143000000     2.266000000    -8.926000000
O    -4.235000000     4.272000000    -7.245000000
H    -4.053000000     3.334000000    -7.299000000
H    -3.416000000     4.690000000    -7.511000000
O     4.254000000     4.709000000    -6.522000000
H     4.747000000     3.940000000    -6.810000000
H     3.357000000     4.392000000    -6.416000000
O    -2.944000000     0.895000000    -4.994000000
H    -2.751000000     1.481000000    -5.726000000
H    -2.366000000     0.144000000    -5.130000000
O    -0.476000000     4.276000000    -4.084000000
H    -0.776000000     5.141000000    -3.805000000
H    -1.182000000     3.683000000    -3.826000000
