215
-1456.03093
C     4.734000000     2.064000000     2.517000000
H     4.551000000     2.024000000     3.588000000
C     3.863000000     2.611000000     1.558000000
C     4.300000000     2.685000000     0.217000000
H     3.660000000     3.160000000    -0.523000000
C     2.392000000     2.961000000     1.891000000
O     2.207000000     2.977000000     3.318000000
H     1.699000000     2.233000000     1.445000000
O     2.066000000     4.252000000     1.311000000
C     0.806000000     4.425000000     0.829000000
C     0.628000000     4.372000000    -0.525000000
H     1.469000000     4.192000000    -1.190000000
C    -0.584000000     4.445000000    -1.033000000
O    -0.608000000     3.975000000    -2.311000000
C    -1.764000000     4.493000000    -0.224000000
C    -3.133000000     4.423000000    -0.856000000
H    -3.829000000     4.877000000    -0.148000000
C    -3.662000000     3.022000000    -1.081000000
C    -4.341000000     2.383000000    -0.061000000
H    -4.488000000     2.936000000     0.863000000
H    -3.329000000     5.056000000    -1.724000000
C    -1.576000000     4.643000000     1.150000000
H    -2.469000000     4.681000000     1.769000000
C    -0.280000000     4.649000000     1.678000000
C    -0.126000000     4.606000000     3.231000000
H    -0.838000000     5.292000000     3.694000000
H     0.789000000     5.113000000     3.545000000
C    -0.189000000     3.224000000     3.806000000
C    -1.410000000     2.642000000     4.137000000
H    -2.359000000     3.164000000     4.046000000
C     0.983000000     2.461000000     3.764000000
C     1.052000000     1.208000000     4.226000000
H     1.986000000     0.665000000     4.347000000
C    -0.119000000     0.599000000     4.637000000
O    -0.085000000    -0.747000000     4.817000000
C    -0.299000000    -1.628000000     3.723000000
C     0.775000000    -2.706000000     3.590000000
C     0.401000000    -3.888000000     3.013000000
H    -0.644000000    -3.997000000     2.733000000
C     2.153000000    -2.489000000     3.786000000
H     2.572000000    -1.529000000     4.079000000
O    -1.730000000    -2.023000000     3.916000000
H    -0.234000000    -1.082000000     2.770000000
C    -1.358000000     1.315000000     4.611000000
C    -2.722000000     0.506000000     4.815000000
H    -3.571000000     1.100000000     5.160000000
H    -2.613000000    -0.146000000     5.684000000
C    -3.227000000    -0.236000000     3.653000000
C    -4.268000000     0.285000000     2.905000000
H    -4.662000000     1.249000000     3.214000000
C    -2.775000000    -1.478000000     3.310000000
C    -3.163000000    -2.094000000     2.119000000
H    -2.682000000    -3.016000000     1.800000000
C    -4.127000000    -1.558000000     1.362000000
O    -4.429000000    -2.267000000     0.271000000
C    -3.814000000    -1.763000000    -0.898000000
C    -3.281000000    -2.861000000    -1.782000000
C    -2.869000000    -4.025000000    -1.219000000
H    -3.017000000    -4.212000000    -0.158000000
C    -3.027000000    -2.643000000    -3.181000000
H    -3.220000000    -1.687000000    -3.661000000
O    -4.665000000    -0.933000000    -1.611000000
H    -2.872000000    -1.229000000    -0.707000000
C    -4.797000000    -0.400000000     1.807000000
C    -5.642000000     0.362000000     0.811000000
H    -6.290000000     1.088000000     1.307000000
H    -6.206000000    -0.479000000     0.403000000
C    -4.760000000     1.074000000    -0.248000000
C    -4.474000000     0.418000000    -1.478000000
C    -3.843000000     1.107000000    -2.492000000
H    -3.681000000     0.567000000    -3.420000000
C    -3.404000000     2.387000000    -2.276000000
O    -2.423000000     2.916000000    -3.102000000
C    -1.059000000     2.712000000    -2.743000000
H    -1.105000000     1.962000000    -1.940000000
C    -0.189000000     2.297000000    -3.889000000
C     1.157000000     2.515000000    -4.011000000
H     1.644000000     2.980000000    -3.157000000
C    -0.741000000     1.491000000    -4.935000000
H    -1.789000000     1.201000000    -4.954000000
C    -0.035000000     1.106000000    -6.043000000
O    -0.594000000     0.348000000    -7.049000000
C     1.298000000     1.388000000    -6.157000000
H     1.858000000     0.979000000    -6.993000000
C     1.925000000     2.096000000    -5.130000000
O     3.256000000     2.329000000    -5.330000000
C     4.066000000     2.881000000    -4.384000000
C     4.764000000     2.129000000    -3.430000000
H     4.889000000     1.052000000    -3.507000000
C     4.089000000     4.260000000    -4.250000000
H     3.644000000     4.872000000    -5.030000000
C     4.681000000     4.954000000    -3.247000000
H     4.611000000     6.038000000    -3.194000000
C     5.453000000     4.212000000    -2.342000000
H     5.928000000     4.805000000    -1.566000000
C     5.465000000     2.806000000    -2.415000000
O     6.051000000     2.066000000    -1.411000000
C     5.563000000     2.103000000    -0.117000000
C     6.420000000     1.596000000     0.851000000
H     7.394000000     1.179000000     0.609000000
C     6.020000000     1.591000000     2.139000000
O     6.841000000     1.048000000     3.143000000
C     6.445000000    -0.074000000     3.840000000
C     5.575000000    -0.994000000     3.247000000
H     5.227000000    -0.748000000     2.247000000
C     6.859000000    -0.244000000     5.130000000
H     7.425000000     0.617000000     5.477000000
C     6.521000000    -1.411000000     5.831000000
H     6.849000000    -1.614000000     6.847000000
C     5.652000000    -2.341000000     5.265000000
H     5.305000000    -3.178000000     5.865000000
C     5.206000000    -2.164000000     3.922000000
O     4.497000000    -3.145000000     3.286000000
C     3.142000000    -3.393000000     3.433000000
C     2.694000000    -4.588000000     2.933000000
H     3.435000000    -5.320000000     2.623000000
C     1.349000000    -4.881000000     2.705000000
O     0.964000000    -6.031000000     2.131000000
C    -0.297000000    -6.415000000     1.669000000
C    -0.634000000    -6.193000000     0.302000000
H     0.042000000    -5.689000000    -0.384000000
C    -1.164000000    -7.041000000     2.553000000
H    -0.852000000    -7.080000000     3.593000000
C    -2.438000000    -7.453000000     2.055000000
H    -3.103000000    -7.953000000     2.755000000
C    -2.756000000    -7.245000000     0.693000000
H    -3.746000000    -7.532000000     0.348000000
C    -1.862000000    -6.629000000    -0.174000000
O    -2.243000000    -6.354000000    -1.500000000
C    -2.416000000    -5.055000000    -1.991000000
C    -2.323000000    -4.964000000    -3.396000000
H    -2.112000000    -5.868000000    -3.961000000
C    -2.645000000    -3.755000000    -4.003000000
O    -2.619000000    -3.745000000    -5.397000000
C    -2.740000000    -2.527000000    -6.031000000
C    -3.975000000    -2.168000000    -6.649000000
H    -4.850000000    -2.799000000    -6.514000000
C    -4.052000000    -0.921000000    -7.338000000
H    -5.019000000    -0.629000000    -7.739000000
C    -2.890000000    -0.077000000    -7.508000000
H    -2.911000000     0.801000000    -8.148000000
C    -1.733000000    -0.466000000    -6.899000000
C    -1.671000000    -1.647000000    -6.197000000
H    -0.706000000    -1.901000000    -5.767000000
C     2.006000000    -0.297000000    -1.659000000
H     2.801000000     0.078000000    -2.299000000
C     1.287000000     0.543000000    -0.821000000
H     1.537000000     1.600000000    -0.787000000
C     0.215000000     0.040000000    -0.007000000
H    -0.148000000     0.615000000     0.856000000
C    -0.191000000    -1.278000000    -0.189000000
H    -1.045000000    -1.575000000     0.415000000
C     0.460000000    -2.108000000    -1.044000000
H     0.107000000    -3.129000000    -1.165000000
C     1.550000000    -1.619000000    -1.763000000
C     2.394000000    -2.491000000    -2.679000000
O     2.174000000    -3.704000000    -2.679000000
O     3.442000000    -2.039000000    -3.195000000
O     8.787000000    -0.838000000    -0.119000000
H     8.137000000    -1.503000000    -0.347000000
H     9.079000000    -1.080000000     0.760000000
O     5.053000000    -7.241000000    -2.797000000
H     5.894000000    -7.601000000    -3.080000000
H     5.187000000    -7.016000000    -1.876000000
O     2.671000000    -5.591000000    -0.907000000
H     3.407000000    -5.260000000    -0.393000000
H     2.553000000    -4.943000000    -1.602000000
O     2.988000000    -5.741000000    -4.509000000
H     3.702000000    -5.973000000    -3.915000000
H     2.491000000    -5.072000000    -4.038000000
O     7.003000000    -2.874000000    -1.225000000
H     6.736000000    -3.116000000    -2.112000000
H     6.210000000    -2.976000000    -0.699000000
O     5.574000000    -3.549000000    -3.448000000
H     5.809000000    -3.681000000    -4.367000000
H     4.788000000    -3.004000000    -3.477000000
O     7.012000000    -0.782000000    -3.258000000
H     6.925000000    -1.360000000    -2.500000000
H     7.315000000    -1.355000000    -3.962000000
O     3.484000000    -7.437000000    -6.547000000
H     3.246000000    -6.879000000    -5.807000000
H     3.139000000    -6.979000000    -7.314000000
O     2.806000000    -2.559000000    -7.843000000
H     3.160000000    -2.279000000    -6.999000000
H     2.587000000    -1.743000000    -8.294000000
O     2.816000000    -8.677000000    -3.213000000
H     3.001000000    -9.353000000    -3.865000000
H     3.620000000    -8.159000000    -3.170000000
O     6.233000000    -6.607000000    -0.209000000
H     7.021000000    -6.083000000    -0.357000000
H     5.616000000    -6.001000000     0.201000000
O     0.425000000    -5.742000000    -7.527000000
H     0.442000000    -6.466000000    -8.153000000
H     0.475000000    -6.165000000    -6.670000000
O     5.798000000    -3.025000000    -6.273000000
H     5.071000000    -2.543000000    -5.880000000
H     6.106000000    -2.458000000    -6.980000000
O     0.091000000    -7.024000000    -4.561000000
H     0.947000000    -6.777000000    -4.211000000
H    -0.327000000    -7.510000000    -3.851000000
O     6.125000000    -5.785000000    -7.405000000
H     5.458000000    -6.384000000    -7.069000000
H     5.985000000    -4.973000000    -6.919000000
O     4.809000000    -1.024000000    -0.618000000
H     4.309000000    -1.328000000    -1.375000000
H     4.459000000    -0.153000000    -0.433000000
O     4.006000000    -0.819000000    -5.723000000
H     3.770000000     0.064000000    -5.440000000
H     3.977000000    -1.343000000    -4.923000000
O     4.972000000    -4.258000000     0.553000000
H     4.499000000    -3.435000000     0.429000000
H     5.548000000    -4.093000000     1.299000000
O     1.708000000    -8.080000000    -0.745000000
H     1.698000000    -7.123000000    -0.743000000
H     2.217000000    -8.313000000    -1.522000000
