215
-1447.93524
C     4.577000000     1.458000000     1.705000000
H     4.120000000     0.857000000     2.487000000
C     3.905000000     2.451000000     1.139000000
C     4.483000000     3.057000000     0.041000000
H     3.987000000     3.842000000    -0.525000000
C     2.490000000     2.882000000     1.557000000
O     2.450000000     2.799000000     3.042000000
H     1.788000000     2.179000000     1.084000000
O     2.203000000     4.260000000     1.092000000
C     0.974000000     4.445000000     0.621000000
C     0.759000000     4.385000000    -0.689000000
H     1.549000000     4.251000000    -1.423000000
C    -0.499000000     4.554000000    -1.176000000
O    -0.614000000     4.402000000    -2.497000000
C    -1.613000000     4.653000000    -0.338000000
C    -3.009000000     4.621000000    -0.913000000
H    -3.642000000     5.114000000    -0.173000000
C    -3.563000000     3.225000000    -1.212000000
C    -4.290000000     2.645000000    -0.207000000
H    -4.469000000     3.194000000     0.714000000
H    -2.991000000     5.242000000    -1.811000000
C    -1.436000000     4.619000000     1.050000000
H    -2.305000000     4.669000000     1.701000000
C    -0.132000000     4.490000000     1.578000000
C     0.020000000     4.524000000     3.093000000
H    -0.859000000     4.976000000     3.559000000
H     0.934000000     5.027000000     3.416000000
C     0.047000000     3.068000000     3.605000000
C    -1.105000000     2.500000000     4.105000000
H    -2.024000000     3.074000000     4.026000000
C     1.275000000     2.374000000     3.638000000
C     1.331000000     1.075000000     4.145000000
H     2.271000000     0.535000000     4.228000000
C     0.187000000     0.460000000     4.583000000
O     0.136000000    -0.864000000     5.051000000
C    -0.467000000    -1.768000000     4.088000000
C     0.367000000    -2.985000000     3.824000000
C    -0.144000000    -4.209000000     3.493000000
H    -1.218000000    -4.365000000     3.547000000
C     1.746000000    -2.749000000     3.730000000
H     2.172000000    -1.767000000     3.920000000
O    -1.855000000    -2.044000000     4.473000000
H    -0.462000000    -1.186000000     3.155000000
C    -1.041000000     1.207000000     4.559000000
C    -2.356000000     0.662000000     5.090000000
H    -3.008000000     1.517000000     5.281000000
H    -2.220000000     0.092000000     6.012000000
C    -3.134000000    -0.049000000     3.930000000
C    -3.916000000     0.619000000     2.935000000
H    -4.172000000     1.675000000     2.961000000
C    -2.808000000    -1.387000000     3.708000000
C    -3.223000000    -1.968000000     2.546000000
H    -2.780000000    -2.942000000     2.354000000
C    -4.048000000    -1.368000000     1.623000000
O    -4.400000000    -2.046000000     0.423000000
C    -3.645000000    -1.700000000    -0.751000000
C    -3.455000000    -2.974000000    -1.582000000
C    -3.254000000    -4.174000000    -0.964000000
H    -3.258000000    -4.234000000     0.121000000
C    -3.437000000    -2.887000000    -2.952000000
H    -3.604000000    -1.905000000    -3.387000000
O    -4.540000000    -0.822000000    -1.501000000
H    -2.690000000    -1.202000000    -0.528000000
C    -4.440000000    -0.046000000     1.821000000
C    -5.402000000     0.637000000     0.893000000
H    -5.917000000     1.398000000     1.483000000
H    -6.156000000    -0.075000000     0.553000000
C    -4.684000000     1.276000000    -0.265000000
C    -4.450000000     0.558000000    -1.423000000
C    -3.666000000     1.125000000    -2.459000000
H    -3.427000000     0.571000000    -3.363000000
C    -3.203000000     2.454000000    -2.322000000
O    -2.370000000     2.903000000    -3.271000000
C    -0.994000000     3.044000000    -2.884000000
H    -0.843000000     2.438000000    -1.979000000
C    -0.015000000     2.384000000    -3.893000000
C     1.195000000     2.982000000    -4.298000000
H     1.467000000     3.922000000    -3.825000000
C    -0.362000000     1.136000000    -4.492000000
H    -1.280000000     0.618000000    -4.227000000
C     0.598000000     0.478000000    -5.208000000
O     0.373000000    -0.806000000    -5.663000000
C     1.831000000     1.054000000    -5.511000000
H     2.550000000     0.400000000    -5.998000000
C     2.134000000     2.321000000    -5.046000000
O     3.438000000     2.818000000    -5.255000000
C     4.106000000     3.674000000    -4.412000000
C     4.954000000     3.169000000    -3.400000000
H     5.157000000     2.109000000    -3.267000000
C     4.137000000     5.077000000    -4.619000000
H     3.578000000     5.458000000    -5.469000000
C     4.984000000     5.844000000    -3.852000000
H     5.058000000     6.911000000    -4.044000000
C     5.696000000     5.410000000    -2.725000000
H     6.304000000     6.047000000    -2.088000000
C     5.619000000     4.005000000    -2.526000000
O     6.310000000     3.377000000    -1.477000000
C     5.685000000     2.704000000    -0.497000000
C     6.459000000     1.721000000     0.166000000
H     7.454000000     1.482000000    -0.199000000
C     5.910000000     1.106000000     1.264000000
O     6.636000000     0.113000000     1.825000000
C     6.112000000    -0.711000000     2.823000000
C     5.205000000    -1.708000000     2.448000000
H     5.173000000    -1.951000000     1.389000000
C     6.195000000    -0.400000000     4.203000000
H     6.919000000     0.390000000     4.387000000
C     5.483000000    -1.090000000     5.169000000
H     5.638000000    -0.864000000     6.221000000
C     4.793000000    -2.230000000     4.745000000
H     4.393000000    -2.954000000     5.451000000
C     4.615000000    -2.519000000     3.396000000
O     3.896000000    -3.595000000     3.055000000
C     2.572000000    -3.783000000     3.267000000
C     2.079000000    -5.060000000     3.068000000
H     2.824000000    -5.792000000     2.767000000
C     0.724000000    -5.279000000     3.128000000
O     0.234000000    -6.444000000     2.712000000
C    -0.999000000    -6.619000000     2.190000000
C    -1.037000000    -6.600000000     0.797000000
H    -0.165000000    -6.283000000     0.230000000
C    -2.039000000    -7.024000000     2.954000000
H    -1.941000000    -7.281000000     4.006000000
C    -3.267000000    -7.264000000     2.336000000
H    -4.025000000    -7.709000000     2.976000000
C    -3.410000000    -7.062000000     1.001000000
H    -4.372000000    -7.252000000     0.532000000
C    -2.283000000    -6.826000000     0.244000000
O    -2.600000000    -6.544000000    -1.086000000
C    -2.941000000    -5.321000000    -1.673000000
C    -2.958000000    -5.201000000    -3.054000000
H    -2.727000000    -6.103000000    -3.615000000
C    -3.290000000    -4.040000000    -3.759000000
O    -3.082000000    -3.967000000    -5.121000000
C    -2.534000000    -2.923000000    -5.785000000
C    -3.264000000    -2.349000000    -6.835000000
H    -4.163000000    -2.892000000    -7.115000000
C    -2.797000000    -1.190000000    -7.444000000
H    -3.403000000    -0.724000000    -8.217000000
C    -1.627000000    -0.612000000    -6.998000000
H    -1.383000000     0.377000000    -7.377000000
C    -0.887000000    -1.250000000    -5.980000000
C    -1.372000000    -2.392000000    -5.391000000
H    -0.807000000    -2.807000000    -4.561000000
C     2.681000000     0.146000000    -1.308000000
H     3.354000000     0.893000000    -1.721000000
C     1.422000000     0.410000000    -0.840000000
H     1.012000000     1.374000000    -1.132000000
C     0.601000000    -0.518000000    -0.216000000
H    -0.356000000    -0.179000000     0.144000000
C     1.158000000    -1.743000000     0.079000000
H     0.533000000    -2.445000000     0.625000000
C     2.417000000    -2.028000000    -0.421000000
H     2.801000000    -3.001000000    -0.127000000
C     3.188000000    -1.141000000    -1.131000000
C     4.548000000    -1.558000000    -1.606000000
O     5.173000000    -2.445000000    -1.083000000
O     5.074000000    -0.826000000    -2.426000000
O    10.022000000    -1.508000000     0.554000000
H     9.117000000    -1.779000000     0.399000000
H    10.027000000    -1.200000000     1.460000000
O     6.491000000    -6.993000000    -2.836000000
H     6.703000000    -7.027000000    -1.904000000
H     6.287000000    -6.073000000    -3.002000000
O     5.032000000    -5.119000000    -0.477000000
H     5.445000000    -5.144000000     0.387000000
H     4.954000000    -4.186000000    -0.678000000
O    -0.020000000    -3.391000000    -2.124000000
H     0.286000000    -3.383000000    -1.217000000
H     0.569000000    -2.792000000    -2.581000000
O     9.481000000    -2.511000000    -3.590000000
H     9.643000000    -3.342000000    -4.035000000
H     9.091000000    -1.952000000    -4.262000000
O     9.092000000    -4.345000000    -1.697000000
H     9.284000000    -3.633000000    -2.306000000
H     8.631000000    -3.923000000    -0.972000000
O     5.834000000    -4.192000000    -3.142000000
H     6.442000000    -3.779000000    -3.755000000
H     5.465000000    -3.464000000    -2.643000000
O     3.783000000    -7.326000000     0.765000000
H     3.971000000    -6.925000000    -0.083000000
H     3.058000000    -7.926000000     0.591000000
O     7.713000000    -0.531000000    -2.125000000
H     6.776000000    -0.663000000    -2.268000000
H     8.024000000    -1.370000000    -1.786000000
O     9.128000000     1.558000000    -2.956000000
H     8.672000000     0.717000000    -2.965000000
H     8.464000000     2.188000000    -2.676000000
O     2.983000000    -5.076000000    -3.828000000
H     3.800000000    -5.100000000    -3.329000000
H     2.936000000    -4.182000000    -4.167000000
O     2.522000000    -2.730000000    -5.186000000
H     3.246000000    -2.140000000    -5.396000000
H     1.753000000    -2.313000000    -5.575000000
O     5.657000000    -2.601000000    -6.641000000
H     5.516000000    -2.033000000    -5.883000000
H     5.785000000    -1.997000000    -7.372000000
O     0.365000000    -5.022000000    -4.619000000
H     0.129000000    -4.638000000    -3.775000000
H     1.305000000    -5.191000000    -4.551000000
O     7.893000000    -3.914000000    -6.525000000
H     7.645000000    -4.802000000    -6.782000000
H     7.065000000    -3.434000000    -6.491000000
O     7.737000000    -2.932000000     0.188000000
H     6.901000000    -2.723000000    -0.229000000
H     7.499000000    -3.470000000     0.943000000
O     4.781000000    -0.616000000    -5.011000000
H     4.771000000     0.300000000    -5.288000000
H     4.737000000    -0.578000000    -4.055000000
O     6.272000000    -4.751000000     1.680000000
H     5.467000000    -4.355000000     2.015000000
H     6.772000000    -4.977000000     2.465000000
O     2.261000000    -7.578000000    -2.746000000
H     2.211000000    -6.636000000    -2.582000000
H     3.032000000    -7.683000000    -3.304000000
