215
-1443.69879
C     4.231000000     2.254000000     1.993000000
H     3.884000000     1.787000000     2.911000000
C     3.445000000     3.204000000     1.324000000
C     3.951000000     3.830000000     0.200000000
H     3.328000000     4.498000000    -0.391000000
C     2.021000000     3.568000000     1.958000000
O     1.923000000     3.428000000     3.432000000
H     1.282000000     2.883000000     1.516000000
O     1.604000000     4.878000000     1.604000000
C     0.275000000     4.888000000     1.122000000
C     0.060000000     4.921000000    -0.237000000
H     0.936000000     4.945000000    -0.880000000
C    -1.189000000     4.629000000    -0.758000000
O    -1.229000000     4.275000000    -2.122000000
C    -2.222000000     4.404000000     0.112000000
C    -3.624000000     4.051000000    -0.337000000
H    -4.383000000     4.466000000     0.330000000
C    -3.803000000     2.537000000    -0.582000000
C    -4.482000000     1.721000000     0.286000000
H    -4.790000000     2.181000000     1.221000000
H    -3.921000000     4.524000000    -1.276000000
C    -2.081000000     4.458000000     1.497000000
H    -2.922000000     4.241000000     2.150000000
C    -0.859000000     4.718000000     2.042000000
C    -0.675000000     4.522000000     3.549000000
H    -1.614000000     4.729000000     4.066000000
H     0.059000000     5.132000000     4.078000000
C    -0.377000000     3.090000000     3.878000000
C    -1.362000000     2.265000000     4.410000000
H    -2.401000000     2.579000000     4.456000000
C     0.935000000     2.592000000     3.896000000
C     1.258000000     1.277000000     4.182000000
H     2.281000000     0.947000000     4.022000000
C     0.222000000     0.461000000     4.523000000
O     0.541000000    -0.926000000     4.841000000
C     0.345000000    -1.838000000     3.711000000
C     1.438000000    -2.836000000     3.440000000
C     1.130000000    -3.970000000     2.696000000
H     0.143000000    -4.169000000     2.286000000
C     2.691000000    -2.610000000     3.914000000
H     2.950000000    -1.774000000     4.559000000
O    -0.913000000    -2.481000000     3.893000000
H     0.194000000    -1.268000000     2.782000000
C    -1.111000000     0.937000000     4.623000000
C    -2.251000000    -0.044000000     5.039000000
H    -3.058000000     0.488000000     5.548000000
H    -1.934000000    -0.762000000     5.798000000
C    -2.783000000    -0.924000000     3.909000000
C    -3.820000000    -0.370000000     3.117000000
H    -4.332000000     0.523000000     3.465000000
C    -2.138000000    -2.043000000     3.434000000
C    -2.567000000    -2.692000000     2.354000000
H    -2.013000000    -3.580000000     2.060000000
C    -3.608000000    -2.254000000     1.599000000
O    -3.932000000    -2.841000000     0.463000000
C    -3.657000000    -2.356000000    -0.875000000
C    -3.344000000    -3.495000000    -1.852000000
C    -2.477000000    -4.577000000    -1.488000000
H    -2.092000000    -4.532000000    -0.473000000
C    -3.801000000    -3.474000000    -3.191000000
H    -4.468000000    -2.711000000    -3.582000000
O    -4.717000000    -1.480000000    -1.415000000
H    -2.724000000    -1.774000000    -0.843000000
C    -4.240000000    -1.071000000     1.985000000
C    -5.358000000    -0.478000000     1.179000000
H    -5.916000000     0.158000000     1.868000000
H    -6.028000000    -1.193000000     0.697000000
C    -4.757000000     0.407000000     0.064000000
C    -4.448000000    -0.166000000    -1.229000000
C    -3.875000000     0.658000000    -2.178000000
H    -3.554000000     0.309000000    -3.157000000
C    -3.581000000     1.997000000    -1.852000000
O    -2.903000000     2.780000000    -2.771000000
C    -1.499000000     2.911000000    -2.537000000
H    -1.201000000     2.333000000    -1.650000000
C    -0.547000000     2.350000000    -3.636000000
C     0.803000000     2.772000000    -3.790000000
H     1.276000000     3.544000000    -3.188000000
C    -0.978000000     1.277000000    -4.451000000
H    -2.000000000     0.910000000    -4.398000000
C    -0.114000000     0.677000000    -5.394000000
O    -0.430000000    -0.413000000    -6.135000000
C     1.166000000     1.161000000    -5.518000000
H     1.848000000     0.785000000    -6.276000000
C     1.667000000     2.156000000    -4.660000000
O     2.972000000     2.509000000    -4.899000000
C     3.533000000     3.593000000    -4.347000000
C     4.279000000     3.336000000    -3.209000000
H     4.527000000     2.328000000    -2.887000000
C     3.308000000     4.943000000    -4.747000000
H     2.569000000     5.075000000    -5.534000000
C     3.932000000     5.944000000    -4.033000000
H     3.852000000     6.982000000    -4.345000000
C     4.740000000     5.736000000    -2.930000000
H     5.226000000     6.527000000    -2.365000000
C     4.854000000     4.421000000    -2.524000000
O     5.672000000     4.097000000    -1.414000000
C     5.214000000     3.466000000    -0.275000000
C     6.001000000     2.501000000     0.326000000
H     6.972000000     2.286000000    -0.113000000
C     5.547000000     1.937000000     1.529000000
O     6.308000000     1.087000000     2.220000000
C     5.869000000     0.255000000     3.209000000
C     5.612000000    -1.073000000     3.011000000
H     5.589000000    -1.513000000     2.018000000
C     5.885000000     0.882000000     4.480000000
H     6.138000000     1.929000000     4.621000000
C     5.585000000     0.106000000     5.571000000
H     5.474000000     0.526000000     6.568000000
C     5.307000000    -1.297000000     5.366000000
H     5.090000000    -1.939000000     6.216000000
C     5.409000000    -1.885000000     4.111000000
O     5.036000000    -3.158000000     3.958000000
C     3.721000000    -3.454000000     3.643000000
C     3.475000000    -4.606000000     2.968000000
H     4.307000000    -5.253000000     2.703000000
C     2.124000000    -4.839000000     2.483000000
O     1.960000000    -5.797000000     1.533000000
C     0.792000000    -6.341000000     1.102000000
C     0.497000000    -6.301000000    -0.285000000
H     1.154000000    -5.824000000    -1.008000000
C     0.010000000    -7.156000000     1.885000000
H     0.282000000    -7.239000000     2.934000000
C    -1.215000000    -7.682000000     1.406000000
H    -1.786000000    -8.330000000     2.066000000
C    -1.612000000    -7.420000000     0.076000000
H    -2.566000000    -7.751000000    -0.326000000
C    -0.745000000    -6.704000000    -0.753000000
O    -1.046000000    -6.467000000    -2.054000000
C    -2.033000000    -5.525000000    -2.400000000
C    -2.488000000    -5.437000000    -3.718000000
H    -2.020000000    -6.167000000    -4.372000000
C    -3.253000000    -4.346000000    -4.127000000
O    -3.448000000    -4.135000000    -5.448000000
C    -3.180000000    -2.908000000    -6.049000000
C    -4.023000000    -2.333000000    -7.084000000
H    -5.024000000    -2.703000000    -7.292000000
C    -3.588000000    -1.094000000    -7.684000000
H    -4.205000000    -0.654000000    -8.464000000
C    -2.417000000    -0.445000000    -7.316000000
H    -2.138000000     0.525000000    -7.719000000
C    -1.619000000    -1.044000000    -6.331000000
C    -1.954000000    -2.273000000    -5.789000000
H    -1.230000000    -2.745000000    -5.131000000
C     2.497000000     0.070000000    -1.103000000
H     3.428000000     0.580000000    -1.337000000
C     1.242000000     0.729000000    -1.075000000
H     1.088000000     1.785000000    -1.281000000
C     0.109000000     0.033000000    -0.734000000
H    -0.845000000     0.484000000    -0.633000000
C     0.236000000    -1.321000000    -0.419000000
H    -0.690000000    -1.811000000    -0.130000000
C     1.402000000    -2.010000000    -0.563000000
H     1.398000000    -3.072000000    -0.328000000
C     2.623000000    -1.310000000    -0.911000000
C     3.914000000    -2.064000000    -1.064000000
O     3.791000000    -3.318000000    -1.208000000
O     4.966000000    -1.578000000    -1.468000000
O     9.332000000     0.301000000    -2.567000000
H     9.553000000     1.176000000    -2.889000000
H     8.393000000     0.343000000    -2.385000000
O     5.307000000    -5.667000000    -1.123000000
H     6.133000000    -5.579000000    -0.647000000
H     4.915000000    -4.795000000    -1.087000000
O     0.463000000    -5.325000000    -4.206000000
H     1.284000000    -5.106000000    -3.766000000
H    -0.095000000    -5.674000000    -3.511000000
O     9.154000000     0.082000000     0.571000000
H     9.187000000     0.968000000     0.209000000
H     9.813000000     0.084000000     1.266000000
O     2.677000000    -1.874000000    -3.844000000
H     1.983000000    -1.454000000    -3.335000000
H     2.865000000    -2.684000000    -3.370000000
O     7.443000000    -4.964000000     0.627000000
H     8.360000000    -4.945000000     0.901000000
H     7.175000000    -4.045000000     0.621000000
O     3.009000000    -4.807000000    -3.170000000
H     3.727000000    -5.431000000    -3.275000000
H     3.255000000    -4.286000000    -2.406000000
O     6.479000000    -1.656000000    -5.460000000
H     5.764000000    -1.020000000    -5.482000000
H     6.142000000    -2.377000000    -4.928000000
O     5.456000000    -6.275000000    -4.615000000
H     5.763000000    -6.435000000    -5.508000000
H     6.127000000    -5.713000000    -4.228000000
O     4.014000000    -3.577000000    -6.175000000
H     3.454000000    -2.844000000    -6.427000000
H     4.026000000    -3.552000000    -5.218000000
O     8.007000000    -5.432000000    -4.187000000
H     8.491000000    -4.905000000    -3.551000000
H     8.230000000    -6.337000000    -3.967000000
O     3.129000000    -6.141000000    -6.415000000
H     3.228000000    -6.643000000    -5.606000000
H     3.454000000    -5.268000000    -6.197000000
O     9.415000000    -4.755000000    -1.818000000
H     9.868000000    -5.531000000    -1.488000000
H     9.138000000    -4.287000000    -1.031000000
O     6.677000000     0.289000000    -2.677000000
H     6.197000000    -0.382000000    -2.191000000
H     6.293000000     0.270000000    -3.553000000
O     4.515000000    -0.048000000    -4.806000000
H     4.030000000     0.750000000    -4.599000000
H     4.009000000    -0.749000000    -4.396000000
O     5.414000000    -3.333000000    -3.594000000
H     5.508000000    -4.226000000    -3.262000000
H     5.302000000    -2.797000000    -2.809000000
O    10.275000000    -1.908000000    -1.463000000
H     9.670000000    -2.155000000    -0.764000000
H     9.950000000    -1.063000000    -1.774000000
O     7.356000000    -2.037000000     0.252000000
H     6.729000000    -1.931000000    -0.464000000
H     7.960000000    -1.301000000     0.152000000
O     3.832000000    -7.702000000     0.056000000
H     3.293000000    -7.174000000     0.646000000
H     4.540000000    -7.116000000    -0.211000000
