215
-1462.54921
C     4.521000000     2.742000000     1.707000000
H     4.406000000     2.634000000     2.783000000
C     3.552000000     3.291000000     0.907000000
C     3.799000000     3.562000000    -0.416000000
H     2.985000000     3.859000000    -1.072000000
C     2.098000000     3.573000000     1.402000000
O     2.064000000     3.823000000     2.863000000
H     1.381000000     2.743000000     1.318000000
O     1.658000000     4.780000000     0.726000000
C     0.359000000     4.665000000     0.323000000
C     0.073000000     4.252000000    -0.959000000
H     0.885000000     4.137000000    -1.671000000
C    -1.240000000     3.876000000    -1.371000000
O    -1.457000000     3.592000000    -2.693000000
C    -2.282000000     4.004000000    -0.474000000
C    -3.717000000     3.823000000    -0.937000000
H    -4.367000000     4.404000000    -0.280000000
C    -4.079000000     2.376000000    -0.998000000
C    -4.570000000     1.827000000     0.192000000
H    -4.578000000     2.441000000     1.089000000
H    -3.755000000     4.272000000    -1.932000000
C    -1.956000000     4.357000000     0.873000000
H    -2.744000000     4.298000000     1.619000000
C    -0.686000000     4.660000000     1.328000000
C    -0.453000000     4.941000000     2.753000000
H    -1.331000000     5.457000000     3.146000000
H     0.297000000     5.734000000     2.776000000
C    -0.161000000     3.642000000     3.499000000
C    -1.108000000     2.906000000     4.155000000
H    -2.138000000     3.245000000     4.083000000
C     1.118000000     3.150000000     3.506000000
C     1.460000000     1.888000000     3.937000000
H     2.440000000     1.431000000     3.819000000
C     0.455000000     1.110000000     4.480000000
O     0.688000000    -0.213000000     4.850000000
C     0.410000000    -1.230000000     3.845000000
C     1.575000000    -2.131000000     3.668000000
C     1.310000000    -3.469000000     3.283000000
H     0.295000000    -3.834000000     3.145000000
C     2.946000000    -1.748000000     3.850000000
H     3.094000000    -0.788000000     4.336000000
O    -0.739000000    -1.933000000     4.269000000
H     0.118000000    -0.677000000     2.941000000
C    -0.840000000     1.579000000     4.567000000
C    -1.940000000     0.656000000     5.113000000
H    -2.781000000     1.192000000     5.559000000
H    -1.442000000     0.069000000     5.887000000
C    -2.462000000    -0.242000000     3.994000000
C    -3.666000000     0.101000000     3.307000000
H    -4.067000000     1.106000000     3.420000000
C    -1.970000000    -1.572000000     3.780000000
C    -2.498000000    -2.357000000     2.765000000
H    -2.032000000    -3.328000000     2.614000000
C    -3.651000000    -1.968000000     2.054000000
O    -4.171000000    -2.768000000     1.069000000
C    -3.829000000    -2.457000000    -0.273000000
C    -3.467000000    -3.656000000    -1.110000000
C    -2.620000000    -4.627000000    -0.492000000
H    -2.453000000    -4.644000000     0.582000000
C    -3.719000000    -3.769000000    -2.476000000
H    -4.349000000    -3.093000000    -3.048000000
O    -4.854000000    -1.691000000    -0.950000000
H    -2.975000000    -1.764000000    -0.237000000
C    -4.240000000    -0.749000000     2.318000000
C    -5.390000000    -0.232000000     1.476000000
H    -5.930000000     0.524000000     2.050000000
H    -6.065000000    -1.035000000     1.171000000
C    -4.869000000     0.469000000     0.233000000
C    -4.641000000    -0.306000000    -0.966000000
C    -4.088000000     0.265000000    -2.088000000
H    -3.874000000    -0.400000000    -2.921000000
C    -3.796000000     1.611000000    -2.132000000
O    -3.217000000     2.118000000    -3.283000000
C    -1.769000000     2.235000000    -3.134000000
H    -1.472000000     1.600000000    -2.287000000
C    -0.953000000     1.664000000    -4.293000000
C     0.221000000     2.297000000    -4.712000000
H     0.560000000     3.128000000    -4.099000000
C    -1.396000000     0.550000000    -5.012000000
H    -2.341000000     0.124000000    -4.686000000
C    -0.515000000    -0.144000000    -5.911000000
O    -0.869000000    -1.265000000    -6.649000000
C     0.736000000     0.444000000    -6.193000000
H     1.425000000    -0.044000000    -6.878000000
C     1.095000000     1.669000000    -5.631000000
O     2.270000000     2.250000000    -6.002000000
C     2.903000000     3.189000000    -5.218000000
C     3.806000000     2.812000000    -4.189000000
H     4.052000000     1.754000000    -4.142000000
C     2.557000000     4.556000000    -5.284000000
H     1.844000000     4.875000000    -6.040000000
C     3.022000000     5.478000000    -4.337000000
H     2.775000000     6.508000000    -4.578000000
C     3.929000000     5.155000000    -3.363000000
H     4.302000000     5.942000000    -2.712000000
C     4.335000000     3.794000000    -3.317000000
O     5.276000000     3.461000000    -2.371000000
C     5.049000000     3.370000000    -0.991000000
C     6.050000000     2.765000000    -0.195000000
H     7.063000000     2.546000000    -0.522000000
C     5.774000000     2.489000000     1.184000000
O     6.813000000     2.078000000     2.017000000
C     6.590000000     1.167000000     3.062000000
C     6.064000000    -0.104000000     2.863000000
H     5.884000000    -0.479000000     1.859000000
C     6.956000000     1.587000000     4.294000000
H     7.438000000     2.556000000     4.390000000
C     6.859000000     0.687000000     5.395000000
H     7.212000000     1.021000000     6.367000000
C     6.298000000    -0.586000000     5.160000000
H     6.146000000    -1.241000000     6.014000000
C     5.819000000    -0.941000000     3.920000000
O     5.374000000    -2.232000000     3.705000000
C     4.021000000    -2.580000000     3.575000000
C     3.769000000    -3.876000000     3.179000000
H     4.575000000    -4.579000000     2.989000000
C     2.441000000    -4.321000000     3.104000000
O     2.202000000    -5.619000000     2.687000000
C     0.986000000    -6.155000000     2.300000000
C     0.554000000    -6.111000000     0.989000000
H     1.181000000    -5.618000000     0.251000000
C     0.145000000    -6.858000000     3.181000000
H     0.378000000    -6.857000000     4.243000000
C    -1.121000000    -7.355000000     2.826000000
H    -1.712000000    -7.908000000     3.553000000
C    -1.495000000    -7.213000000     1.513000000
H    -2.397000000    -7.732000000     1.197000000
C    -0.662000000    -6.640000000     0.551000000
O    -1.071000000    -6.524000000    -0.707000000
C    -1.999000000    -5.598000000    -1.245000000
C    -2.319000000    -5.714000000    -2.595000000
H    -1.824000000    -6.429000000    -3.247000000
C    -3.126000000    -4.830000000    -3.176000000
O    -3.274000000    -4.951000000    -4.542000000
C    -3.149000000    -3.888000000    -5.400000000
C    -4.318000000    -3.563000000    -6.115000000
H    -5.195000000    -4.204000000    -6.125000000
C    -4.210000000    -2.593000000    -7.117000000
H    -5.046000000    -2.366000000    -7.774000000
C    -3.077000000    -1.774000000    -7.224000000
H    -3.064000000    -0.994000000    -7.981000000
C    -1.987000000    -2.024000000    -6.456000000
C    -2.010000000    -3.136000000    -5.591000000
H    -1.116000000    -3.253000000    -4.984000000
C     1.144000000     0.135000000    -1.746000000
H     1.589000000     0.829000000    -2.455000000
C     0.421000000     0.581000000    -0.663000000
H     0.368000000     1.645000000    -0.447000000
C    -0.199000000    -0.294000000     0.218000000
H    -0.899000000    -0.127000000     0.950000000
C    -0.001000000    -1.645000000     0.005000000
H    -0.410000000    -2.298000000     0.772000000
C     0.651000000    -2.153000000    -1.103000000
H     0.635000000    -3.228000000    -1.262000000
C     1.302000000    -1.232000000    -1.955000000
C     2.171000000    -1.755000000    -3.072000000
O     2.151000000    -2.952000000    -3.284000000
O     3.037000000    -1.102000000    -3.504000000
O     4.643000000    -7.401000000    -5.649000000
H     5.471000000    -7.881000000    -5.616000000
H     4.470000000    -7.159000000    -4.739000000
O     3.536000000    -4.279000000    -1.513000000
H     4.410000000    -3.889000000    -1.517000000
H     3.058000000    -3.804000000    -2.192000000
O    -0.392000000    -1.657000000    -9.419000000
H    -1.153000000    -2.234000000    -9.355000000
H    -0.103000000    -1.541000000    -8.514000000
O     1.209000000    -5.331000000    -4.364000000
H     2.094000000    -5.513000000    -4.682000000
H     1.287000000    -4.493000000    -3.907000000
O     7.721000000    -2.166000000    -3.499000000
H     7.369000000    -1.410000000    -3.970000000
H     6.995000000    -2.465000000    -2.951000000
O     3.646000000    -4.143000000    -5.342000000
H     4.344000000    -3.568000000    -5.657000000
H     3.337000000    -3.727000000    -4.538000000
O     7.342000000    -2.408000000     0.924000000
H     7.437000000    -3.009000000     1.663000000
H     8.075000000    -1.799000000     1.015000000
O     6.624000000    -0.109000000    -5.045000000
H     7.129000000    -0.259000000    -5.844000000
H     6.760000000     0.817000000    -4.847000000
O     7.150000000     2.438000000    -4.318000000
H     6.943000000     2.662000000    -3.410000000
H     6.891000000     3.209000000    -4.821000000
O     3.487000000    -3.118000000    -8.231000000
H     3.097000000    -3.651000000    -7.538000000
H     4.022000000    -2.475000000    -7.765000000
O     4.553000000    -6.574000000    -3.174000000
H     5.433000000    -6.301000000    -3.430000000
H     4.238000000    -5.868000000    -2.608000000
O     7.046000000    -5.563000000    -3.425000000
H     7.028000000    -4.832000000    -2.807000000
H     7.953000000    -5.600000000    -3.727000000
O     6.793000000    -3.864000000    -6.211000000
H     7.576000000    -3.407000000    -6.517000000
H     7.034000000    -4.200000000    -5.347000000
O     0.903000000    -7.999000000    -4.693000000
H     0.811000000    -7.112000000    -4.346000000
H     1.262000000    -8.505000000    -3.964000000
O     5.493000000    -0.698000000    -2.707000000
H     4.542000000    -0.634000000    -2.793000000
H     5.831000000    -0.415000000    -3.556000000
O     4.179000000    -1.489000000    -5.835000000
H     5.012000000    -1.067000000    -5.623000000
H     3.725000000    -1.557000000    -4.995000000
O     3.725000000     0.444000000    -7.959000000
H     3.952000000    -0.068000000    -7.182000000
H     3.263000000     1.209000000    -7.616000000
O     5.966000000    -3.149000000    -1.441000000
H     5.841000000    -2.277000000    -1.816000000
H     6.242000000    -2.984000000    -0.539000000
O     2.841000000    -7.074000000    -0.840000000
H     3.039000000    -6.184000000    -0.547000000
H     3.027000000    -7.063000000    -1.779000000
