215
-1451.35828
C     4.060000000     2.336000000     1.221000000
H     3.744000000     1.793000000     2.109000000
C     3.242000000     3.246000000     0.533000000
C     3.685000000     3.878000000    -0.658000000
H     3.009000000     4.435000000    -1.301000000
C     1.849000000     3.550000000     1.103000000
O     1.880000000     3.481000000     2.526000000
H     1.249000000     2.682000000     0.792000000
O     1.274000000     4.751000000     0.608000000
C    -0.048000000     4.830000000     0.232000000
C    -0.373000000     4.828000000    -1.123000000
H     0.425000000     4.860000000    -1.861000000
C    -1.652000000     4.398000000    -1.554000000
O    -1.799000000     4.023000000    -2.851000000
C    -2.681000000     4.170000000    -0.618000000
C    -4.016000000     3.649000000    -1.052000000
H    -4.752000000     4.109000000    -0.390000000
C    -4.219000000     2.155000000    -1.027000000
C    -4.716000000     1.530000000     0.137000000
H    -4.975000000     2.086000000     1.034000000
H    -4.237000000     4.036000000    -2.049000000
C    -2.396000000     4.329000000     0.723000000
H    -3.092000000     3.961000000     1.472000000
C    -1.087000000     4.555000000     1.153000000
C    -0.815000000     4.559000000     2.574000000
H    -1.719000000     4.941000000     3.053000000
H    -0.009000000     5.270000000     2.766000000
C    -0.451000000     3.188000000     3.207000000
C    -1.484000000     2.484000000     3.823000000
H    -2.503000000     2.862000000     3.851000000
C     0.871000000     2.834000000     3.306000000
C     1.171000000     1.581000000     3.836000000
H     2.147000000     1.104000000     3.856000000
C     0.191000000     0.820000000     4.442000000
O     0.532000000    -0.473000000     4.959000000
C     0.168000000    -1.540000000     4.083000000
C     1.307000000    -2.574000000     3.987000000
C     1.063000000    -3.882000000     3.593000000
H     0.043000000    -4.185000000     3.369000000
C     2.638000000    -2.117000000     4.068000000
H     2.884000000    -1.077000000     4.266000000
O    -1.035000000    -2.151000000     4.639000000
H    -0.069000000    -1.143000000     3.085000000
C    -1.152000000     1.271000000     4.435000000
C    -2.283000000     0.488000000     5.036000000
H    -3.117000000     1.143000000     5.296000000
H    -1.946000000     0.131000000     6.011000000
C    -2.760000000    -0.548000000     4.055000000
C    -3.909000000    -0.204000000     3.275000000
H    -4.384000000     0.774000000     3.304000000
C    -2.201000000    -1.793000000     3.908000000
C    -2.631000000    -2.696000000     2.930000000
H    -2.098000000    -3.643000000     2.917000000
C    -3.735000000    -2.376000000     2.114000000
O    -4.034000000    -3.165000000     1.019000000
C    -3.512000000    -2.748000000    -0.217000000
C    -3.053000000    -3.881000000    -1.059000000
C    -2.432000000    -4.944000000    -0.472000000
H    -2.235000000    -4.881000000     0.595000000
C    -3.119000000    -3.886000000    -2.496000000
H    -3.668000000    -3.062000000    -2.945000000
O    -4.539000000    -1.987000000    -0.888000000
H    -2.651000000    -2.096000000    -0.008000000
C    -4.357000000    -1.118000000     2.335000000
C    -5.422000000    -0.609000000     1.350000000
H    -5.960000000     0.133000000     1.943000000
H    -6.193000000    -1.288000000     0.979000000
C    -4.828000000     0.132000000     0.205000000
C    -4.434000000    -0.613000000    -0.938000000
C    -3.909000000    -0.013000000    -2.050000000
H    -3.589000000    -0.567000000    -2.929000000
C    -3.715000000     1.377000000    -2.045000000
O    -2.973000000     1.935000000    -3.124000000
C    -1.698000000     2.563000000    -2.912000000
H    -1.292000000     2.033000000    -2.038000000
C    -0.630000000     2.115000000    -3.992000000
C     0.497000000     2.900000000    -4.351000000
H     0.671000000     3.843000000    -3.839000000
C    -0.780000000     0.879000000    -4.590000000
H    -1.695000000     0.340000000    -4.359000000
C     0.059000000     0.424000000    -5.614000000
O    -0.082000000    -0.788000000    -6.198000000
C     1.122000000     1.283000000    -6.014000000
H     1.819000000     0.867000000    -6.737000000
C     1.406000000     2.449000000    -5.297000000
O     2.499000000     3.200000000    -5.800000000
C     3.222000000     4.117000000    -5.053000000
C     3.930000000     3.710000000    -3.895000000
H     3.828000000     2.658000000    -3.641000000
C     3.206000000     5.468000000    -5.388000000
H     2.658000000     5.861000000    -6.241000000
C     3.966000000     6.414000000    -4.687000000
H     4.057000000     7.442000000    -5.027000000
C     4.822000000     5.987000000    -3.700000000
H     5.626000000     6.607000000    -3.312000000
C     4.745000000     4.636000000    -3.262000000
O     5.525000000     4.268000000    -2.170000000
C     5.015000000     3.833000000    -0.992000000
C     5.893000000     3.047000000    -0.202000000
H     6.944000000     3.075000000    -0.478000000
C     5.435000000     2.278000000     0.871000000
O     6.369000000     1.681000000     1.657000000
C     6.123000000     0.949000000     2.786000000
C     5.581000000    -0.372000000     2.607000000
H     5.333000000    -0.842000000     1.659000000
C     6.315000000     1.558000000     4.042000000
H     6.581000000     2.601000000     4.192000000
C     5.962000000     0.820000000     5.154000000
H     6.044000000     1.194000000     6.172000000
C     5.630000000    -0.528000000     5.014000000
H     5.403000000    -1.009000000     5.962000000
C     5.402000000    -1.114000000     3.797000000
O     5.051000000    -2.421000000     3.738000000
C     3.783000000    -2.971000000     3.892000000
C     3.484000000    -4.267000000     3.482000000
H     4.303000000    -4.917000000     3.184000000
C     2.149000000    -4.697000000     3.297000000
O     1.993000000    -5.990000000     2.840000000
C     0.836000000    -6.558000000     2.378000000
C     0.448000000    -6.351000000     1.078000000
H     1.018000000    -5.797000000     0.337000000
C     0.103000000    -7.271000000     3.286000000
H     0.466000000    -7.436000000     4.297000000
C    -0.988000000    -7.956000000     2.831000000
H    -1.651000000    -8.522000000     3.481000000
C    -1.346000000    -7.910000000     1.505000000
H    -2.224000000    -8.487000000     1.225000000
C    -0.674000000    -7.054000000     0.647000000
O    -1.110000000    -7.054000000    -0.702000000
C    -1.892000000    -5.979000000    -1.250000000
C    -1.907000000    -5.990000000    -2.640000000
H    -1.284000000    -6.623000000    -3.267000000
C    -2.516000000    -4.824000000    -3.268000000
O    -2.320000000    -4.673000000    -4.594000000
C    -2.360000000    -3.474000000    -5.335000000
C    -3.475000000    -3.045000000    -6.121000000
H    -4.377000000    -3.651000000    -6.110000000
C    -3.506000000    -1.932000000    -6.904000000
H    -4.477000000    -1.703000000    -7.335000000
C    -2.393000000    -1.068000000    -6.830000000
H    -2.334000000    -0.150000000    -7.409000000
C    -1.266000000    -1.507000000    -6.153000000
C    -1.228000000    -2.656000000    -5.354000000
H    -0.338000000    -2.904000000    -4.781000000
C     1.749000000    -0.559000000    -1.749000000
H     2.304000000    -0.177000000    -2.602000000
C     0.816000000     0.277000000    -1.189000000
H     0.817000000     1.307000000    -1.535000000
C    -0.062000000    -0.075000000    -0.210000000
H    -0.769000000     0.693000000     0.178000000
C     0.070000000    -1.339000000     0.266000000
H    -0.558000000    -1.580000000     1.120000000
C     0.971000000    -2.261000000    -0.229000000
H     1.102000000    -3.285000000     0.110000000
C     1.785000000    -1.893000000    -1.257000000
C     2.758000000    -2.827000000    -1.961000000
O     2.609000000    -4.050000000    -1.824000000
O     3.491000000    -2.431000000    -2.839000000
O     8.874000000    -2.100000000    -3.377000000
H     9.507000000    -2.084000000    -2.659000000
H     8.063000000    -2.410000000    -2.974000000
O     4.367000000    -5.234000000    -0.376000000
H     4.993000000    -4.658000000     0.062000000
H     3.821000000    -4.644000000    -0.895000000
O     1.362000000    -5.981000000    -2.902000000
H     1.822000000    -6.567000000    -2.301000000
H     1.639000000    -5.103000000    -2.641000000
O     7.209000000     1.883000000    -3.287000000
H     6.376000000     1.445000000    -3.111000000
H     7.080000000     2.311000000    -4.134000000
O     7.696000000     0.133000000    -1.036000000
H     6.912000000     0.117000000    -0.486000000
H     7.370000000     0.342000000    -1.911000000
O     3.793000000    -4.873000000    -4.502000000
H     4.120000000    -4.083000000    -4.931000000
H     3.402000000    -4.559000000    -3.686000000
O     5.801000000    -3.235000000     0.878000000
H     6.746000000    -3.297000000     1.017000000
H     5.436000000    -3.140000000     1.758000000
O     4.860000000     0.895000000    -5.642000000
H     5.539000000     0.376000000    -6.074000000
H     5.167000000     1.798000000    -5.713000000
O     1.749000000    -3.283000000    -7.391000000
H     2.300000000    -3.233000000    -6.610000000
H     1.479000000    -2.379000000    -7.553000000
O     0.301000000    -8.803000000    -2.272000000
H     0.821000000    -8.046000000    -2.544000000
H    -0.406000000    -8.430000000    -1.744000000
O     5.126000000    -7.007000000    -3.252000000
H     5.978000000    -6.619000000    -3.050000000
H     4.683000000    -6.346000000    -3.785000000
O     7.049000000    -5.394000000    -5.323000000
H     6.793000000    -4.865000000    -4.568000000
H     7.993000000    -5.518000000    -5.219000000
O     6.000000000    -8.264000000    -0.449000000
H     5.515000000    -7.566000000    -0.890000000
H     5.478000000    -8.463000000     0.328000000
O     1.511000000    -6.025000000    -5.595000000
H     2.374000000    -5.642000000    -5.437000000
H     1.079000000    -6.004000000    -4.741000000
O     5.226000000     0.088000000    -2.550000000
H     4.626000000    -0.644000000    -2.404000000
H     5.071000000     0.346000000    -3.459000000
O     3.837000000    -1.913000000    -5.431000000
H     4.069000000    -0.987000000    -5.497000000
H     3.800000000    -2.085000000    -4.490000000
O     7.136000000    -5.881000000    -2.077000000
H     8.014000000    -5.671000000    -1.758000000
H     6.670000000    -5.045000000    -2.062000000
O     6.019000000    -3.151000000    -2.207000000
H     5.095000000    -3.086000000    -2.448000000
H     6.047000000    -2.877000000    -1.290000000
O     3.228000000    -7.300000000    -1.729000000
H     3.630000000    -6.536000000    -1.316000000
H     3.818000000    -7.523000000    -2.448000000
