215
-1489.15421
C     4.304000000     2.265000000     1.839000000
H     4.084000000     1.976000000     2.863000000
C     3.425000000     3.129000000     1.123000000
C     3.706000000     3.646000000    -0.140000000
H     3.064000000     4.330000000    -0.689000000
C     2.035000000     3.344000000     1.637000000
O     1.973000000     3.225000000     3.032000000
H     1.374000000     2.618000000     1.142000000
O     1.487000000     4.660000000     1.281000000
C     0.160000000     4.683000000     0.865000000
C    -0.047000000     4.589000000    -0.484000000
H     0.761000000     4.369000000    -1.177000000
C    -1.310000000     4.405000000    -0.948000000
O    -1.490000000     4.157000000    -2.261000000
C    -2.417000000     4.213000000    -0.080000000
C    -3.842000000     3.918000000    -0.626000000
H    -4.600000000     4.451000000    -0.048000000
C    -4.146000000     2.439000000    -0.748000000
C    -4.756000000     1.708000000     0.264000000
H    -5.139000000     2.147000000     1.182000000
H    -3.899000000     4.434000000    -1.587000000
C    -2.267000000     4.289000000     1.296000000
H    -3.074000000     4.107000000     2.001000000
C    -0.908000000     4.562000000     1.779000000
C    -0.605000000     4.505000000     3.292000000
H    -1.452000000     4.949000000     3.819000000
H     0.193000000     5.194000000     3.579000000
C    -0.392000000     3.062000000     3.778000000
C    -1.436000000     2.223000000     4.115000000
H    -2.462000000     2.556000000     4.252000000
C     0.900000000     2.589000000     3.651000000
C     1.157000000     1.284000000     4.044000000
H     2.174000000     0.926000000     3.903000000
C     0.165000000     0.469000000     4.529000000
O     0.481000000    -0.831000000     4.875000000
C     0.086000000    -1.831000000     3.910000000
C     1.124000000    -2.882000000     3.635000000
C     0.848000000    -4.243000000     3.352000000
H    -0.148000000    -4.641000000     3.175000000
C     2.507000000    -2.552000000     3.815000000
H     2.700000000    -1.522000000     4.102000000
O    -1.171000000    -2.458000000     4.265000000
H    -0.014000000    -1.320000000     2.941000000
C    -1.208000000     0.922000000     4.543000000
C    -2.330000000     0.060000000     5.024000000
H    -3.083000000     0.687000000     5.508000000
H    -1.875000000    -0.534000000     5.820000000
C    -2.910000000    -0.845000000     3.910000000
C    -4.091000000    -0.520000000     3.280000000
H    -4.574000000     0.403000000     3.592000000
C    -2.280000000    -2.028000000     3.626000000
C    -2.718000000    -2.829000000     2.597000000
H    -2.270000000    -3.790000000     2.361000000
C    -3.667000000    -2.306000000     1.761000000
O    -3.856000000    -3.058000000     0.633000000
C    -3.401000000    -2.439000000    -0.569000000
C    -2.829000000    -3.451000000    -1.583000000
C    -1.887000000    -4.311000000    -1.045000000
H    -1.625000000    -4.316000000     0.010000000
C    -3.154000000    -3.365000000    -2.937000000
H    -3.720000000    -2.530000000    -3.342000000
O    -4.433000000    -1.696000000    -1.241000000
H    -2.609000000    -1.694000000    -0.402000000
C    -4.405000000    -1.206000000     2.141000000
C    -5.481000000    -0.588000000     1.208000000
H    -6.224000000    -0.016000000     1.767000000
H    -5.943000000    -1.511000000     0.854000000
C    -4.816000000     0.317000000     0.084000000
C    -4.472000000    -0.301000000    -1.045000000
C    -3.930000000     0.410000000    -2.106000000
H    -3.340000000    -0.129000000    -2.843000000
C    -3.735000000     1.754000000    -1.953000000
O    -2.990000000     2.436000000    -2.894000000
C    -1.575000000     2.756000000    -2.679000000
H    -1.283000000     2.111000000    -1.837000000
C    -0.801000000     2.508000000    -3.994000000
C     0.269000000     3.401000000    -4.307000000
H     0.330000000     4.365000000    -3.808000000
C    -0.966000000     1.330000000    -4.688000000
H    -1.682000000     0.606000000    -4.309000000
C    -0.104000000     1.032000000    -5.756000000
O    -0.157000000    -0.121000000    -6.434000000
C     0.878000000     1.994000000    -6.232000000
H     1.546000000     1.724000000    -7.046000000
C     1.060000000     3.172000000    -5.478000000
O     2.120000000     3.971000000    -5.751000000
C     2.958000000     4.463000000    -4.713000000
C     3.755000000     3.680000000    -3.938000000
H     3.684000000     2.600000000    -4.034000000
C     3.095000000     5.875000000    -4.570000000
H     2.597000000     6.601000000    -5.207000000
C     3.920000000     6.412000000    -3.621000000
H     4.101000000     7.468000000    -3.440000000
C     4.601000000     5.585000000    -2.708000000
H     5.127000000     6.009000000    -1.857000000
C     4.510000000     4.225000000    -2.884000000
O     5.278000000     3.423000000    -2.074000000
C     4.846000000     3.079000000    -0.791000000
C     5.669000000     2.227000000    -0.083000000
H     6.503000000     1.755000000    -0.597000000
C     5.470000000     1.793000000     1.226000000
O     6.230000000     0.831000000     1.785000000
C     5.963000000     0.155000000     2.969000000
C     5.576000000    -1.208000000     2.916000000
H     5.447000000    -1.765000000     1.991000000
C     6.356000000     0.682000000     4.164000000
H     6.730000000     1.702000000     4.216000000
C     6.100000000     0.024000000     5.353000000
H     6.303000000     0.590000000     6.259000000
C     5.556000000    -1.268000000     5.332000000
H     5.328000000    -1.664000000     6.318000000
C     5.333000000    -1.880000000     4.139000000
O     4.821000000    -3.140000000     4.142000000
C     3.495000000    -3.450000000     3.731000000
C     3.213000000    -4.774000000     3.343000000
H     4.004000000    -5.515000000     3.263000000
C     1.903000000    -5.185000000     3.154000000
O     1.808000000    -6.452000000     2.674000000
C     0.818000000    -6.774000000     1.825000000
C     0.793000000    -6.193000000     0.557000000
H     1.490000000    -5.393000000     0.321000000
C    -0.148000000    -7.640000000     2.275000000
H    -0.085000000    -8.013000000     3.294000000
C    -1.126000000    -8.004000000     1.427000000
H    -1.882000000    -8.679000000     1.821000000
C    -1.189000000    -7.487000000     0.140000000
H    -1.953000000    -7.781000000    -0.575000000
C    -0.213000000    -6.590000000    -0.302000000
O    -0.310000000    -6.013000000    -1.572000000
C    -1.246000000    -5.132000000    -1.964000000
C    -1.377000000    -4.934000000    -3.311000000
H    -0.832000000    -5.533000000    -4.036000000
C    -2.387000000    -4.169000000    -3.816000000
O    -2.531000000    -4.071000000    -5.169000000
C    -2.526000000    -2.869000000    -5.768000000
C    -3.549000000    -2.566000000    -6.617000000
H    -4.510000000    -3.068000000    -6.689000000
C    -3.632000000    -1.326000000    -7.265000000
H    -4.471000000    -1.021000000    -7.885000000
C    -2.515000000    -0.459000000    -7.164000000
H    -2.531000000     0.477000000    -7.716000000
C    -1.393000000    -0.850000000    -6.407000000
C    -1.385000000    -2.029000000    -5.674000000
H    -0.511000000    -2.344000000    -5.109000000
C     2.374000000    -0.008000000    -0.882000000
H     3.285000000     0.371000000    -1.338000000
C     1.273000000     0.837000000    -0.640000000
H     1.237000000     1.839000000    -1.060000000
C     0.158000000     0.209000000    -0.070000000
H    -0.712000000     0.815000000     0.146000000
C     0.160000000    -1.117000000     0.266000000
H    -0.753000000    -1.531000000     0.688000000
C     1.249000000    -1.961000000     0.093000000
H     1.262000000    -3.023000000     0.328000000
C     2.389000000    -1.350000000    -0.395000000
C     3.627000000    -2.216000000    -0.589000000
O     3.568000000    -3.435000000    -0.473000000
O     4.686000000    -1.617000000    -0.748000000
O     7.162000000    -4.999000000     3.529000000
H     7.068000000    -5.949000000     3.601000000
H     6.688000000    -4.771000000     2.729000000
O     4.187000000    -7.591000000    -4.251000000
H     3.307000000    -7.618000000    -4.628000000
H     4.622000000    -6.872000000    -4.711000000
O     4.575000000    -5.738000000    -0.209000000
H     5.436000000    -5.452000000     0.094000000
H     4.058000000    -4.934000000    -0.256000000
O     8.153000000    -3.962000000    -2.666000000
H     7.278000000    -4.350000000    -2.689000000
H     8.638000000    -4.502000000    -2.042000000
O     2.502000000    -0.996000000    -6.117000000
H     1.581000000    -0.823000000    -5.924000000
H     2.778000000    -1.608000000    -5.434000000
O     6.988000000    -5.037000000     0.721000000
H     7.031000000    -4.086000000     0.623000000
H     7.881000000    -5.336000000     0.548000000
O     5.176000000    -5.420000000    -5.722000000
H     5.621000000    -4.652000000    -5.364000000
H     4.374000000    -5.073000000    -6.112000000
O     5.886000000    -2.521000000    -5.298000000
H     6.726000000    -2.074000000    -5.185000000
H     5.595000000    -2.710000000    -4.406000000
O     4.674000000    -7.717000000     1.819000000
H     4.452000000    -6.933000000     1.317000000
H     5.067000000    -8.309000000     1.178000000
O     2.657000000    -8.085000000    -1.510000000
H     3.155000000    -7.937000000    -2.314000000
H     3.296000000    -7.965000000    -0.808000000
O     2.416000000    -5.275000000    -6.232000000
H     1.911000000    -6.086000000    -6.177000000
H     1.968000000    -4.673000000    -5.638000000
O     4.739000000     0.700000000    -5.379000000
H     4.024000000     0.134000000    -5.667000000
H     4.923000000     0.417000000    -4.483000000
O     9.021000000    -0.975000000     1.746000000
H     8.500000000    -1.105000000     0.954000000
H     8.554000000    -1.465000000     2.423000000
O     5.548000000     0.005000000    -2.773000000
H     5.174000000    -0.564000000    -2.099000000
H     6.480000000    -0.213000000    -2.780000000
O     1.371000000    -2.243000000    -3.666000000
H     0.920000000    -1.801000000    -2.947000000
H     1.689000000    -3.061000000    -3.282000000
O     5.373000000    -3.974000000    -2.775000000
H     4.897000000    -4.561000000    -2.187000000
H     5.183000000    -3.097000000    -2.441000000
O     7.968000000    -1.178000000    -2.518000000
H     8.788000000    -0.806000000    -2.843000000
H     8.043000000    -2.115000000    -2.696000000
O     7.122000000    -2.490000000    -0.076000000
H     6.252000000    -2.129000000    -0.244000000
H     7.630000000    -2.266000000    -0.855000000
O     1.778000000    -4.370000000    -2.337000000
H     2.385000000    -4.130000000    -1.636000000
H     1.268000000    -5.094000000    -1.974000000
