215
-1435.79195
C     3.754000000     1.880000000     2.274000000
H     3.421000000     1.214000000     3.066000000
C     2.966000000     2.997000000     1.938000000
C     3.354000000     3.936000000     0.977000000
H     2.758000000     4.806000000     0.716000000
C     1.583000000     3.058000000     2.591000000
O     1.447000000     2.485000000     3.929000000
H     1.071000000     2.491000000     1.800000000
O     0.915000000     4.353000000     2.507000000
C    -0.304000000     4.328000000     1.958000000
C    -0.458000000     4.542000000     0.584000000
H     0.315000000     4.901000000    -0.090000000
C    -1.708000000     4.439000000    -0.049000000
O    -1.854000000     4.662000000    -1.388000000
C    -2.801000000     4.016000000     0.694000000
C    -4.148000000     3.737000000    -0.019000000
H    -4.933000000     3.953000000     0.708000000
C    -4.212000000     2.284000000    -0.558000000
C    -4.890000000     1.307000000     0.181000000
H    -5.355000000     1.623000000     1.112000000
H    -4.318000000     4.438000000    -0.839000000
C    -2.667000000     3.503000000     2.001000000
H    -3.416000000     3.069000000     2.658000000
C    -1.442000000     3.704000000     2.630000000
C    -1.379000000     3.447000000     4.118000000
H    -2.369000000     3.508000000     4.575000000
H    -0.668000000     4.095000000     4.635000000
C    -0.900000000     2.011000000     4.283000000
C    -1.799000000     1.005000000     4.446000000
H    -2.848000000     1.274000000     4.537000000
C     0.446000000     1.628000000     4.141000000
C     0.843000000     0.299000000     4.323000000
H     1.919000000     0.152000000     4.292000000
C    -0.135000000    -0.712000000     4.459000000
O     0.291000000    -2.029000000     4.494000000
C     0.065000000    -2.906000000     3.340000000
C     1.265000000    -3.784000000     3.022000000
C     1.128000000    -4.825000000     2.068000000
H     0.129000000    -5.120000000     1.759000000
C     2.511000000    -3.437000000     3.510000000
H     2.553000000    -2.733000000     4.337000000
O    -1.086000000    -3.750000000     3.463000000
H    -0.114000000    -2.169000000     2.543000000
C    -1.550000000    -0.397000000     4.522000000
C    -2.566000000    -1.495000000     4.680000000
H    -3.483000000    -1.125000000     5.145000000
H    -2.134000000    -2.282000000     5.301000000
C    -2.864000000    -2.066000000     3.322000000
C    -3.920000000    -1.428000000     2.673000000
H    -4.376000000    -0.559000000     3.141000000
C    -2.160000000    -3.111000000     2.813000000
C    -2.570000000    -3.593000000     1.559000000
H    -2.090000000    -4.478000000     1.149000000
C    -3.615000000    -2.953000000     0.917000000
O    -3.755000000    -3.339000000    -0.379000000
C    -3.109000000    -2.500000000    -1.391000000
C    -2.364000000    -3.291000000    -2.504000000
C    -2.189000000    -4.684000000    -2.281000000
H    -2.385000000    -5.128000000    -1.308000000
C    -1.728000000    -2.613000000    -3.614000000
H    -1.853000000    -1.546000000    -3.781000000
O    -4.089000000    -1.558000000    -1.909000000
H    -2.402000000    -1.919000000    -0.781000000
C    -4.267000000    -1.876000000     1.415000000
C    -5.383000000    -1.139000000     0.629000000
H    -6.108000000    -0.785000000     1.365000000
H    -5.891000000    -1.843000000    -0.033000000
C    -4.804000000    -0.047000000    -0.227000000
C    -4.094000000    -0.307000000    -1.395000000
C    -3.565000000     0.713000000    -2.199000000
H    -3.148000000     0.436000000    -3.163000000
C    -3.578000000     2.018000000    -1.760000000
O    -2.897000000     2.934000000    -2.520000000
C    -1.568000000     3.485000000    -2.165000000
H    -1.006000000     2.834000000    -1.479000000
C    -0.673000000     3.725000000    -3.391000000
C     0.201000000     4.792000000    -3.483000000
H     0.154000000     5.590000000    -2.747000000
C    -0.621000000     2.643000000    -4.266000000
H    -1.212000000     1.758000000    -4.045000000
C     0.251000000     2.771000000    -5.367000000
O     0.523000000     1.800000000    -6.281000000
C     1.166000000     3.809000000    -5.430000000
H     1.990000000     3.747000000    -6.136000000
C     1.061000000     4.843000000    -4.564000000
O     2.087000000     5.762000000    -4.543000000
C     2.863000000     6.094000000    -3.474000000
C     3.607000000     5.136000000    -2.748000000
H     3.762000000     4.178000000    -3.237000000
C     2.678000000     7.381000000    -2.948000000
H     2.070000000     8.123000000    -3.460000000
C     3.201000000     7.805000000    -1.769000000
H     3.174000000     8.840000000    -1.439000000
C     3.989000000     6.899000000    -1.085000000
H     4.564000000     7.336000000    -0.273000000
C     4.133000000     5.548000000    -1.522000000
O     4.931000000     4.620000000    -0.720000000
C     4.526000000     3.730000000     0.282000000
C     5.273000000     2.581000000     0.606000000
H     6.194000000     2.370000000     0.069000000
C     4.932000000     1.695000000     1.635000000
O     5.799000000     0.624000000     1.927000000
C     5.690000000    -0.216000000     3.019000000
C     5.347000000    -1.539000000     2.811000000
H     5.109000000    -1.913000000     1.819000000
C     5.595000000     0.252000000     4.348000000
H     5.729000000     1.326000000     4.444000000
C     5.437000000    -0.613000000     5.457000000
H     5.429000000    -0.206000000     6.466000000
C     5.104000000    -1.980000000     5.207000000
H     4.901000000    -2.669000000     6.023000000
C     5.099000000    -2.412000000     3.902000000
O     4.850000000    -3.674000000     3.518000000
C     3.621000000    -4.063000000     3.018000000
C     3.480000000    -5.014000000     2.048000000
H     4.384000000    -5.407000000     1.590000000
C     2.255000000    -5.464000000     1.595000000
O     2.209000000    -6.449000000     0.611000000
C     1.039000000    -6.926000000     0.157000000
C     0.535000000    -6.535000000    -1.120000000
H     1.061000000    -5.744000000    -1.647000000
C     0.401000000    -7.957000000     0.784000000
H     0.784000000    -8.338000000     1.727000000
C    -0.640000000    -8.671000000     0.139000000
H    -1.140000000    -9.431000000     0.733000000
C    -1.108000000    -8.263000000    -1.094000000
H    -1.995000000    -8.672000000    -1.571000000
C    -0.512000000    -7.178000000    -1.780000000
O    -1.075000000    -6.676000000    -2.956000000
C    -1.341000000    -5.351000000    -3.195000000
C    -0.846000000    -4.743000000    -4.328000000
H    -0.295000000    -5.277000000    -5.098000000
C    -1.087000000    -3.371000000    -4.571000000
O    -0.666000000    -2.765000000    -5.698000000
C    -0.939000000    -1.534000000    -6.056000000
C    -2.267000000    -1.297000000    -6.481000000
H    -2.951000000    -2.130000000    -6.333000000
C    -2.613000000    -0.053000000    -6.938000000
H    -3.628000000     0.146000000    -7.272000000
C    -1.697000000     1.010000000    -6.830000000
H    -1.957000000     2.038000000    -7.071000000
C    -0.375000000     0.705000000    -6.449000000
C    -0.001000000    -0.512000000    -6.080000000
H     1.044000000    -0.737000000    -5.880000000
C     2.841000000     1.405000000    -1.978000000
H     3.277000000     2.078000000    -2.712000000
C     1.764000000     1.974000000    -1.329000000
H     1.515000000     3.009000000    -1.549000000
C     1.082000000     1.224000000    -0.409000000
H     0.212000000     1.687000000     0.047000000
C     1.448000000    -0.076000000    -0.081000000
H     0.852000000    -0.620000000     0.648000000
C     2.477000000    -0.676000000    -0.830000000
H     2.889000000    -1.668000000    -0.665000000
C     3.264000000     0.056000000    -1.766000000
C     4.407000000    -0.485000000    -2.490000000
O     4.526000000    -1.644000000    -2.778000000
O     5.123000000     0.347000000    -2.982000000
O     9.979000000     0.121000000    -3.648000000
H     9.740000000    -0.698000000    -3.215000000
H     9.373000000     0.188000000    -4.386000000
O     2.334000000    -5.754000000    -4.358000000
H     2.091000000    -4.835000000    -4.464000000
H     2.929000000    -5.760000000    -3.608000000
O     8.586000000     2.412000000    -2.331000000
H     9.381000000     2.191000000    -2.816000000
H     8.746000000     3.293000000    -1.996000000
O     4.273000000     0.231000000    -5.681000000
H     4.458000000     0.355000000    -4.750000000
H     4.151000000    -0.713000000    -5.778000000
O     6.094000000    -5.705000000    -0.527000000
H     6.490000000    -4.841000000    -0.413000000
H     6.729000000    -6.312000000    -0.149000000
O     5.435000000    -5.331000000    -5.188000000
H     5.725000000    -4.421000000    -5.130000000
H     4.814000000    -5.338000000    -5.917000000
O     2.936000000    -0.265000000    -8.259000000
H     3.297000000    -0.086000000    -7.391000000
H     3.670000000    -0.126000000    -8.857000000
O     4.052000000    -2.391000000    -5.912000000
H     3.708000000    -2.757000000    -6.727000000
H     3.521000000    -2.796000000    -5.226000000
O     5.528000000     3.017000000    -6.274000000
H     4.948000000     2.265000000    -6.398000000
H     5.753000000     2.994000000    -5.344000000
O     8.781000000     0.077000000     1.298000000
H     8.150000000     0.358000000     0.635000000
H     8.479000000    -0.792000000     1.562000000
O     8.773000000    -2.688000000    -6.406000000
H     7.957000000    -2.705000000    -5.906000000
H     9.456000000    -2.567000000    -5.745000000
O     5.851000000     2.721000000    -3.240000000
H     5.612000000     1.888000000    -2.832000000
H     6.717000000     2.922000000    -2.885000000
O     7.482000000    -0.258000000    -4.743000000
H     6.835000000     0.155000000    -4.170000000
H     7.298000000    -1.195000000    -4.676000000
O     9.924000000    -1.988000000    -1.494000000
H     9.798000000    -1.336000000    -0.804000000
H     9.548000000    -2.792000000    -1.136000000
O     6.551000000    -2.654000000    -4.392000000
H     5.979000000    -2.184000000    -3.786000000
H     6.907000000    -3.376000000    -3.875000000
O     7.163000000     0.088000000    -1.275000000
H     7.758000000     0.793000000    -1.529000000
H     6.408000000     0.192000000    -1.854000000
O     6.423000000    -2.877000000    -1.318000000
H     5.684000000    -2.497000000    -1.792000000
H     6.827000000    -2.135000000    -0.869000000
O     8.544000000     2.052000000    -6.411000000
H     7.927000000     1.447000000    -5.999000000
H     8.494000000     2.845000000    -5.877000000
O     2.450000000    -3.117000000    -3.728000000
H     1.767000000    -2.450000000    -3.667000000
H     3.151000000    -2.795000000    -3.161000000
