215
-1464.76978
C     3.521000000     1.295000000     2.101000000
H     3.134000000     0.397000000     2.574000000
C     2.750000000     2.470000000     2.118000000
C     3.220000000     3.570000000     1.496000000
H     2.620000000     4.473000000     1.411000000
C     1.317000000     2.396000000     2.669000000
O     1.307000000     1.773000000     4.021000000
H     0.706000000     1.929000000     1.883000000
O     0.736000000     3.740000000     2.795000000
C    -0.571000000     3.991000000     2.404000000
C    -0.758000000     4.542000000     1.157000000
H     0.136000000     4.888000000     0.643000000
C    -2.022000000     4.554000000     0.573000000
O    -2.040000000     4.878000000    -0.697000000
C    -3.110000000     3.989000000     1.265000000
C    -4.374000000     3.618000000     0.467000000
H    -5.164000000     3.468000000     1.206000000
C    -4.265000000     2.303000000    -0.312000000
C    -4.833000000     1.151000000     0.205000000
H    -5.355000000     1.091000000     1.156000000
H    -4.607000000     4.459000000    -0.190000000
C    -2.940000000     3.463000000     2.564000000
H    -3.693000000     2.831000000     3.028000000
C    -1.639000000     3.466000000     3.168000000
C    -1.532000000     2.735000000     4.504000000
H    -2.551000000     2.813000000     4.889000000
H    -0.838000000     3.258000000     5.165000000
C    -1.132000000     1.238000000     4.364000000
C    -2.144000000     0.288000000     4.537000000
H    -3.206000000     0.476000000     4.678000000
C     0.205000000     0.878000000     4.178000000
C     0.574000000    -0.498000000     4.196000000
H     1.604000000    -0.806000000     4.033000000
C    -0.402000000    -1.421000000     4.382000000
O    -0.039000000    -2.733000000     4.295000000
C    -0.129000000    -3.395000000     3.010000000
C     1.068000000    -4.318000000     2.825000000
C     0.942000000    -5.524000000     2.115000000
H    -0.048000000    -5.778000000     1.746000000
C     2.363000000    -3.970000000     3.200000000
H     2.456000000    -3.194000000     3.956000000
O    -1.346000000    -4.190000000     3.107000000
H    -0.060000000    -2.628000000     2.223000000
C    -1.805000000    -1.036000000     4.584000000
C    -2.860000000    -2.084000000     4.520000000
H    -3.782000000    -1.741000000     4.993000000
H    -2.586000000    -2.987000000     5.070000000
C    -3.128000000    -2.409000000     3.054000000
C    -4.150000000    -1.896000000     2.292000000
H    -4.758000000    -1.103000000     2.719000000
C    -2.426000000    -3.522000000     2.471000000
C    -2.619000000    -3.799000000     1.124000000
H    -2.062000000    -4.564000000     0.588000000
C    -3.432000000    -3.035000000     0.364000000
O    -3.450000000    -3.244000000    -0.963000000
C    -2.792000000    -2.242000000    -1.821000000
C    -1.933000000    -2.842000000    -2.940000000
C    -0.937000000    -3.771000000    -2.578000000
H    -0.930000000    -4.305000000    -1.631000000
C    -1.979000000    -2.293000000    -4.235000000
H    -2.695000000    -1.540000000    -4.556000000
O    -3.697000000    -1.348000000    -2.378000000
H    -2.107000000    -1.654000000    -1.193000000
C    -4.305000000    -2.135000000     0.932000000
C    -5.355000000    -1.368000000     0.134000000
H    -6.265000000    -1.060000000     0.654000000
H    -5.654000000    -2.010000000    -0.698000000
C    -4.729000000    -0.135000000    -0.426000000
C    -3.933000000    -0.224000000    -1.584000000
C    -3.259000000     0.884000000    -2.111000000
H    -2.700000000     0.821000000    -3.041000000
C    -3.422000000     2.126000000    -1.444000000
O    -2.897000000     3.277000000    -2.003000000
C    -1.625000000     3.772000000    -1.504000000
H    -1.153000000     3.008000000    -0.869000000
C    -0.676000000     4.153000000    -2.629000000
C     0.278000000     5.155000000    -2.440000000
H     0.269000000     5.851000000    -1.605000000
C    -0.769000000     3.423000000    -3.827000000
H    -1.496000000     2.616000000    -3.794000000
C     0.098000000     3.642000000    -4.899000000
O     0.156000000     2.768000000    -5.990000000
C     1.049000000     4.639000000    -4.746000000
H     1.795000000     4.787000000    -5.522000000
C     1.123000000     5.431000000    -3.519000000
O     2.067000000     6.399000000    -3.388000000
C     2.781000000     6.462000000    -2.211000000
C     3.580000000     5.430000000    -1.726000000
H     3.611000000     4.465000000    -2.226000000
C     2.780000000     7.704000000    -1.540000000
H     2.324000000     8.519000000    -2.096000000
C     3.567000000     7.931000000    -0.424000000
H     3.544000000     8.939000000    -0.018000000
C     4.247000000     6.841000000     0.166000000
H     4.937000000     7.009000000     0.989000000
C     4.211000000     5.603000000    -0.473000000
O     5.031000000     4.553000000     0.028000000
C     4.499000000     3.539000000     0.865000000
C     5.183000000     2.331000000     0.826000000
H     6.071000000     2.184000000     0.216000000
C     4.818000000     1.222000000     1.568000000
O     5.619000000     0.101000000     1.522000000
C     5.610000000    -0.859000000     2.533000000
C     5.226000000    -2.148000000     2.273000000
H     4.922000000    -2.425000000     1.267000000
C     5.841000000    -0.368000000     3.756000000
H     6.035000000     0.687000000     3.932000000
C     5.852000000    -1.274000000     4.863000000
H     6.210000000    -0.912000000     5.824000000
C     5.447000000    -2.575000000     4.643000000
H     5.473000000    -3.249000000     5.496000000
C     5.087000000    -3.037000000     3.376000000
O     4.732000000    -4.314000000     3.030000000
C     3.474000000    -4.628000000     2.725000000
C     3.338000000    -5.851000000     2.009000000
H     4.211000000    -6.422000000     1.706000000
C     2.066000000    -6.233000000     1.660000000
O     1.842000000    -7.329000000     0.838000000
C     1.089000000    -7.170000000    -0.275000000
C     1.398000000    -6.131000000    -1.182000000
H     2.135000000    -5.362000000    -0.965000000
C     0.097000000    -8.116000000    -0.641000000
H    -0.088000000    -8.894000000     0.096000000
C    -0.522000000    -8.084000000    -1.883000000
H    -1.249000000    -8.850000000    -2.139000000
C    -0.095000000    -7.063000000    -2.753000000
H    -0.454000000    -7.092000000    -3.778000000
C     0.777000000    -6.062000000    -2.392000000
O     1.077000000    -5.021000000    -3.284000000
C     0.086000000    -3.982000000    -3.542000000
C     0.088000000    -3.345000000    -4.823000000
H     0.890000000    -3.571000000    -5.520000000
C    -1.014000000    -2.556000000    -5.184000000
O    -1.009000000    -1.861000000    -6.339000000
C    -1.389000000    -0.529000000    -6.373000000
C    -2.736000000    -0.149000000    -6.589000000
H    -3.518000000    -0.901000000    -6.648000000
C    -3.055000000     1.179000000    -6.707000000
H    -4.091000000     1.460000000    -6.879000000
C    -2.080000000     2.177000000    -6.558000000
H    -2.275000000     3.242000000    -6.654000000
C    -0.778000000     1.789000000    -6.255000000
C    -0.389000000     0.428000000    -6.282000000
H     0.651000000     0.176000000    -6.088000000
C     3.022000000     0.207000000    -1.397000000
H     3.478000000     1.111000000    -1.792000000
C     1.873000000     0.382000000    -0.631000000
H     1.632000000     1.401000000    -0.337000000
C     1.106000000    -0.699000000    -0.143000000
H     0.289000000    -0.575000000     0.463000000
C     1.505000000    -1.986000000    -0.448000000
H     1.044000000    -2.851000000     0.023000000
C     2.664000000    -2.146000000    -1.196000000
H     3.081000000    -3.139000000    -1.349000000
C     3.432000000    -1.100000000    -1.783000000
C     4.638000000    -1.279000000    -2.643000000
O     4.958000000    -2.378000000    -3.001000000
O     5.336000000    -0.289000000    -2.861000000
O    10.554000000    -1.455000000    -5.050000000
H    10.127000000    -1.399000000    -4.195000000
H    11.465000000    -1.214000000    -4.878000000
O     3.680000000    -6.347000000    -5.956000000
H     4.193000000    -6.024000000    -5.216000000
H     3.831000000    -7.293000000    -5.957000000
O     7.297000000    -4.124000000     1.035000000
H     7.656000000    -4.163000000     0.148000000
H     7.033000000    -5.024000000     1.226000000
O     8.886000000     1.977000000    -2.121000000
H     7.929000000     1.963000000    -2.120000000
H     9.113000000     2.882000000    -1.908000000
O     8.940000000    -4.811000000    -1.311000000
H     9.506000000    -4.622000000    -2.060000000
H     8.051000000    -4.745000000    -1.660000000
O     3.289000000     1.954000000    -6.415000000
H     2.528000000     1.732000000    -6.953000000
H     3.534000000     1.130000000    -5.995000000
O     5.998000000    -4.723000000    -1.564000000
H     5.613000000    -5.564000000    -1.809000000
H     5.485000000    -4.075000000    -2.048000000
O     4.285000000    -3.497000000    -6.430000000
H     4.933000000    -4.130000000    -6.122000000
H     3.461000000    -3.789000000    -6.041000000
O     5.015000000    -0.121000000    -8.353000000
H     5.290000000    -0.098000000    -7.437000000
H     5.301000000     0.720000000    -8.710000000
O     4.790000000     4.144000000    -5.094000000
H     4.494000000     3.293000000    -5.416000000
H     4.375000000     4.779000000    -5.678000000
O     9.137000000     0.117000000     0.905000000
H     9.159000000     0.042000000    -0.049000000
H     9.032000000    -0.782000000     1.214000000
O     8.640000000    -2.336000000    -6.742000000
H     9.369000000    -2.170000000    -6.144000000
H     7.870000000    -2.376000000    -6.176000000
O     6.223000000     2.150000000    -2.606000000
H     5.791000000     1.296000000    -2.642000000
H     5.582000000     2.759000000    -2.973000000
O     4.572000000    -0.758000000    -5.656000000
H     4.894000000    -0.434000000    -4.814000000
H     4.760000000    -1.696000000    -5.639000000
O     9.870000000    -1.639000000    -2.354000000
H     9.136000000    -1.150000000    -1.982000000
H    10.377000000    -1.926000000    -1.594000000
O     7.376000000    -1.904000000    -4.259000000
H     6.524000000    -2.118000000    -3.878000000
H     8.009000000    -2.167000000    -3.591000000
O     7.565000000    -0.921000000    -1.158000000
H     6.787000000    -0.550000000    -1.573000000
H     7.257000000    -1.233000000    -0.307000000
O     6.971000000     1.070000000    -5.241000000
H     6.996000000     1.536000000    -4.406000000
H     7.017000000     0.145000000    -5.001000000
O     3.944000000    -4.675000000    -3.652000000
H     3.011000000    -4.776000000    -3.465000000
H     4.122000000    -3.749000000    -3.488000000
