215
-1451.75547
C     3.909000000     1.471000000     2.180000000
H     3.563000000     0.541000000     2.625000000
C     3.035000000     2.547000000     2.216000000
C     3.497000000     3.675000000     1.475000000
H     2.853000000     4.534000000     1.306000000
C     1.624000000     2.388000000     2.854000000
O     1.605000000     1.745000000     4.157000000
H     1.142000000     1.747000000     2.101000000
O     0.970000000     3.703000000     2.910000000
C    -0.336000000     3.767000000     2.521000000
C    -0.584000000     4.339000000     1.267000000
H     0.173000000     4.948000000     0.780000000
C    -1.851000000     4.214000000     0.768000000
O    -1.946000000     4.660000000    -0.505000000
C    -2.941000000     3.629000000     1.422000000
C    -4.298000000     3.490000000     0.758000000
H    -5.043000000     3.256000000     1.522000000
C    -4.410000000     2.246000000    -0.086000000
C    -4.760000000     1.096000000     0.584000000
H    -5.267000000     1.166000000     1.543000000
H    -4.763000000     4.399000000     0.369000000
C    -2.656000000     3.097000000     2.697000000
H    -3.506000000     2.656000000     3.211000000
C    -1.362000000     3.158000000     3.260000000
C    -1.121000000     2.585000000     4.641000000
H    -2.061000000     2.676000000     5.190000000
H    -0.399000000     3.121000000     5.260000000
C    -0.735000000     1.148000000     4.614000000
C    -1.690000000     0.172000000     4.719000000
H    -2.742000000     0.444000000     4.770000000
C     0.609000000     0.798000000     4.382000000
C     0.933000000    -0.528000000     4.326000000
H     1.963000000    -0.830000000     4.155000000
C     0.005000000    -1.475000000     4.464000000
O     0.454000000    -2.737000000     4.266000000
C     0.245000000    -3.296000000     2.949000000
C     1.451000000    -4.181000000     2.506000000
C     1.232000000    -5.271000000     1.699000000
H     0.259000000    -5.613000000     1.356000000
C     2.737000000    -3.752000000     2.800000000
H     2.851000000    -2.844000000     3.387000000
O    -0.946000000    -4.032000000     2.916000000
H     0.188000000    -2.442000000     2.257000000
C    -1.344000000    -1.162000000     4.615000000
C    -2.434000000    -2.201000000     4.592000000
H    -3.385000000    -1.956000000     5.071000000
H    -2.024000000    -3.041000000     5.157000000
C    -2.808000000    -2.541000000     3.133000000
C    -3.894000000    -1.896000000     2.504000000
H    -4.434000000    -1.066000000     2.954000000
C    -2.037000000    -3.390000000     2.404000000
C    -2.368000000    -3.768000000     1.127000000
H    -1.788000000    -4.540000000     0.628000000
C    -3.353000000    -3.075000000     0.448000000
O    -3.473000000    -3.181000000    -0.907000000
C    -2.942000000    -2.078000000    -1.737000000
C    -2.150000000    -2.565000000    -2.920000000
C    -1.583000000    -3.796000000    -2.819000000
H    -1.654000000    -4.444000000    -1.949000000
C    -1.814000000    -1.705000000    -3.971000000
H    -2.334000000    -0.753000000    -4.038000000
O    -4.098000000    -1.338000000    -2.114000000
H    -2.236000000    -1.529000000    -1.097000000
C    -4.179000000    -2.191000000     1.148000000
C    -5.297000000    -1.382000000     0.437000000
H    -6.099000000    -1.072000000     1.111000000
H    -5.745000000    -2.063000000    -0.289000000
C    -4.693000000    -0.115000000    -0.128000000
C    -4.240000000    -0.124000000    -1.434000000
C    -3.830000000     1.013000000    -2.075000000
H    -3.345000000     0.909000000    -3.043000000
C    -3.892000000     2.204000000    -1.417000000
O    -3.265000000     3.270000000    -1.993000000
C    -1.936000000     3.652000000    -1.539000000
H    -1.444000000     2.765000000    -1.112000000
C    -1.080000000     4.114000000    -2.720000000
C     0.213000000     4.567000000    -2.436000000
H     0.566000000     4.686000000    -1.415000000
C    -1.409000000     3.854000000    -4.082000000
H    -2.422000000     3.537000000    -4.317000000
C    -0.455000000     3.970000000    -5.024000000
O    -0.598000000     3.370000000    -6.255000000
C     0.769000000     4.512000000    -4.840000000
H     1.454000000     4.409000000    -5.678000000
C     1.145000000     4.837000000    -3.536000000
O     2.403000000     5.372000000    -3.426000000
C     2.861000000     5.883000000    -2.271000000
C     3.808000000     5.144000000    -1.573000000
H     4.108000000     4.144000000    -1.872000000
C     2.388000000     7.105000000    -1.766000000
H     1.738000000     7.700000000    -2.403000000
C     2.864000000     7.640000000    -0.579000000
H     2.470000000     8.554000000    -0.143000000
C     3.785000000     6.816000000     0.139000000
H     4.071000000     7.133000000     1.139000000
C     4.289000000     5.682000000    -0.433000000
O     5.230000000     4.981000000     0.328000000
C     4.819000000     3.797000000     0.982000000
C     5.653000000     2.804000000     1.285000000
H     6.705000000     2.969000000     1.067000000
C     5.191000000     1.573000000     1.749000000
O     6.064000000     0.507000000     1.829000000
C     5.840000000    -0.474000000     2.780000000
C     5.641000000    -1.813000000     2.307000000
H     5.640000000    -2.137000000     1.269000000
C     5.913000000    -0.285000000     4.132000000
H     6.153000000     0.696000000     4.535000000
C     5.644000000    -1.310000000     4.982000000
H     5.597000000    -1.196000000     6.062000000
C     5.368000000    -2.599000000     4.551000000
H     5.002000000    -3.402000000     5.186000000
C     5.366000000    -2.841000000     3.213000000
O     5.076000000    -4.166000000     2.747000000
C     3.817000000    -4.556000000     2.310000000
C     3.645000000    -5.700000000     1.538000000
H     4.503000000    -6.284000000     1.216000000
C     2.313000000    -5.943000000     1.155000000
O     2.113000000    -6.976000000     0.260000000
C     1.067000000    -7.083000000    -0.639000000
C     1.001000000    -6.172000000    -1.729000000
H     1.800000000    -5.441000000    -1.818000000
C     0.197000000    -8.139000000    -0.506000000
H     0.237000000    -8.899000000     0.270000000
C    -0.840000000    -8.217000000    -1.436000000
H    -1.654000000    -8.902000000    -1.211000000
C    -0.917000000    -7.321000000    -2.505000000
H    -1.679000000    -7.437000000    -3.272000000
C    -0.031000000    -6.297000000    -2.637000000
O    -0.017000000    -5.447000000    -3.760000000
C    -0.739000000    -4.270000000    -3.855000000
C    -0.620000000    -3.405000000    -4.955000000
H    -0.016000000    -3.770000000    -5.781000000
C    -1.120000000    -2.167000000    -5.036000000
O    -0.913000000    -1.417000000    -6.222000000
C    -1.452000000    -0.218000000    -6.534000000
C    -2.638000000    -0.176000000    -7.234000000
H    -3.213000000    -1.043000000    -7.549000000
C    -3.148000000     1.105000000    -7.608000000
H    -4.132000000     1.179000000    -8.063000000
C    -2.459000000     2.253000000    -7.321000000
H    -2.804000000     3.230000000    -7.650000000
C    -1.342000000     2.197000000    -6.506000000
C    -0.801000000     0.974000000    -6.136000000
H     0.152000000     0.909000000    -5.618000000
C     3.292000000    -0.399000000    -2.290000000
H     3.923000000     0.363000000    -2.740000000
C     1.916000000    -0.162000000    -2.370000000
H     1.534000000     0.706000000    -2.902000000
C     1.027000000    -0.962000000    -1.719000000
H    -0.010000000    -0.756000000    -1.825000000
C     1.490000000    -2.035000000    -0.993000000
H     0.811000000    -2.618000000    -0.375000000
C     2.863000000    -2.357000000    -0.989000000
H     3.251000000    -3.166000000    -0.376000000
C     3.801000000    -1.503000000    -1.633000000
C     5.267000000    -1.741000000    -1.692000000
O     5.642000000    -2.916000000    -1.468000000
O     6.074000000    -0.886000000    -2.079000000
O     8.469000000    -5.255000000    -3.440000000
H     9.268000000    -4.749000000    -3.294000000
H     8.776000000    -6.097000000    -3.777000000
O     8.848000000     2.413000000    -0.438000000
H     7.925000000     2.270000000    -0.648000000
H     9.325000000     2.012000000    -1.165000000
O     9.792000000    -2.867000000    -5.422000000
H    10.213000000    -3.176000000    -4.620000000
H     9.072000000    -2.315000000    -5.117000000
O     5.275000000     1.250000000    -6.551000000
H     5.976000000     1.769000000    -6.943000000
H     5.717000000     0.477000000    -6.199000000
O     6.318000000    -5.701000000    -1.954000000
H     7.150000000    -5.478000000    -2.372000000
H     5.864000000    -4.863000000    -1.865000000
O     1.995000000    -2.881000000    -3.751000000
H     1.355000000    -3.470000000    -3.351000000
H     1.990000000    -2.105000000    -3.191000000
O     5.406000000    -1.675000000    -7.392000000
H     5.735000000    -2.365000000    -7.968000000
H     5.036000000    -2.144000000    -6.644000000
O     6.742000000    -7.262000000     0.588000000
H     7.670000000    -7.031000000     0.636000000
H     6.413000000    -6.777000000    -0.169000000
O     9.727000000     0.915000000    -2.998000000
H     9.513000000    -0.018000000    -2.977000000
H    10.562000000     0.979000000    -2.535000000
O     4.272000000     2.854000000    -4.332000000
H     4.765000000     2.263000000    -4.901000000
H     4.873000000     3.579000000    -4.162000000
O     6.564000000    -2.982000000    -4.431000000
H     6.478000000    -2.838000000    -3.488000000
H     6.960000000    -3.850000000    -4.506000000
O     6.392000000     1.735000000    -1.590000000
H     6.432000000     0.779000000    -1.592000000
H     5.596000000     1.941000000    -1.101000000
O     6.382000000    -0.312000000    -4.688000000
H     6.316000000    -0.144000000    -3.748000000
H     6.592000000    -1.243000000    -4.751000000
O    10.171000000    -2.155000000    -0.610000000
H    10.970000000    -2.274000000    -0.096000000
H     9.501000000    -2.636000000    -0.125000000
O     7.935000000    -3.498000000     0.189000000
H     7.287000000    -3.124000000    -0.409000000
H     7.462000000    -4.190000000     0.651000000
O     8.607000000    -1.500000000    -2.694000000
H     9.098000000    -2.033000000    -2.068000000
H     7.816000000    -1.243000000    -2.221000000
O     9.321000000    -0.665000000     2.338000000
H     8.689000000    -1.179000000     1.835000000
H     9.191000000    -0.944000000     3.244000000
O     8.131000000     1.674000000    -5.337000000
H     7.467000000     0.986000000    -5.297000000
H     8.761000000     1.438000000    -4.657000000
O     3.772000000    -3.287000000    -5.685000000
H     4.536000000    -3.579000000    -5.187000000
H     3.097000000    -3.138000000    -5.023000000
