215
-1468.48822
C     4.900000000     0.868000000     3.278000000
H     4.550000000     0.106000000     3.971000000
C     4.018000000     1.914000000     2.984000000
C     4.448000000     2.910000000     2.092000000
H     3.701000000     3.670000000     1.878000000
C     2.556000000     1.809000000     3.345000000
O     2.347000000     0.996000000     4.449000000
H     2.073000000     1.309000000     2.493000000
O     1.969000000     3.088000000     3.610000000
C     0.658000000     3.351000000     3.294000000
C     0.523000000     3.986000000     2.118000000
H     1.417000000     4.360000000     1.625000000
C    -0.761000000     4.307000000     1.599000000
O    -0.872000000     4.859000000     0.363000000
C    -1.919000000     3.884000000     2.307000000
C    -3.318000000     4.185000000     1.763000000
H    -3.993000000     4.366000000     2.601000000
C    -3.764000000     3.013000000     0.896000000
C    -4.506000000     1.937000000     1.362000000
H    -4.678000000     1.895000000     2.435000000
H    -3.307000000     5.111000000     1.184000000
C    -1.758000000     3.347000000     3.562000000
H    -2.709000000     3.032000000     3.983000000
C    -0.443000000     2.937000000     4.040000000
C    -0.288000000     2.079000000     5.310000000
H    -1.095000000     2.065000000     6.046000000
H     0.584000000     2.335000000     5.916000000
C    -0.020000000     0.594000000     5.005000000
C    -1.149000000    -0.264000000     5.011000000
H    -2.120000000     0.077000000     5.360000000
C     1.262000000     0.194000000     4.505000000
C     1.318000000    -1.053000000     3.983000000
H     2.257000000    -1.378000000     3.544000000
C     0.251000000    -1.900000000     3.960000000
O     0.420000000    -3.151000000     3.486000000
C    -0.101000000    -3.433000000     2.126000000
C     0.945000000    -4.193000000     1.342000000
C     0.657000000    -5.026000000     0.242000000
H    -0.381000000    -5.236000000    -0.001000000
C     2.301000000    -3.922000000     1.583000000
H     2.644000000    -3.335000000     2.431000000
O    -1.264000000    -4.171000000     2.209000000
H    -0.268000000    -2.516000000     1.542000000
C    -1.006000000    -1.523000000     4.474000000
C    -2.223000000    -2.512000000     4.462000000
H    -2.932000000    -2.448000000     5.290000000
H    -1.816000000    -3.505000000     4.669000000
C    -2.957000000    -2.583000000     3.119000000
C    -3.852000000    -1.607000000     2.702000000
H    -4.212000000    -0.908000000     3.453000000
C    -2.431000000    -3.432000000     2.098000000
C    -2.935000000    -3.346000000     0.865000000
H    -2.620000000    -4.016000000     0.069000000
C    -3.821000000    -2.360000000     0.486000000
O    -4.241000000    -2.332000000    -0.832000000
C    -3.774000000    -1.269000000    -1.609000000
C    -3.397000000    -1.833000000    -3.008000000
C    -3.106000000    -3.167000000    -3.236000000
H    -3.233000000    -3.874000000    -2.420000000
C    -3.291000000    -0.967000000    -4.116000000
H    -3.634000000     0.055000000    -3.979000000
O    -4.684000000    -0.159000000    -1.645000000
H    -2.811000000    -0.986000000    -1.158000000
C    -4.432000000    -1.557000000     1.443000000
C    -5.472000000    -0.457000000     1.117000000
H    -5.954000000    -0.158000000     2.051000000
H    -6.177000000    -1.008000000     0.491000000
C    -4.845000000     0.814000000     0.514000000
C    -4.481000000     0.872000000    -0.824000000
C    -3.812000000     2.011000000    -1.292000000
H    -3.529000000     2.103000000    -2.337000000
C    -3.477000000     3.103000000    -0.453000000
O    -2.730000000     4.105000000    -0.985000000
C    -1.279000000     4.006000000    -0.722000000
H    -1.083000000     3.006000000    -0.307000000
C    -0.512000000     4.141000000    -2.037000000
C     0.937000000     4.185000000    -2.011000000
H     1.441000000     4.222000000    -1.049000000
C    -1.103000000     4.066000000    -3.322000000
H    -2.173000000     3.933000000    -3.461000000
C    -0.352000000     4.035000000    -4.490000000
O    -0.933000000     3.877000000    -5.757000000
C     1.081000000     4.145000000    -4.451000000
H     1.797000000     4.023000000    -5.259000000
C     1.644000000     4.127000000    -3.207000000
O     3.018000000     4.136000000    -3.121000000
C     3.812000000     4.713000000    -2.148000000
C     4.627000000     3.917000000    -1.333000000
H     4.792000000     2.889000000    -1.645000000
C     3.695000000     6.087000000    -1.881000000
H     3.218000000     6.669000000    -2.666000000
C     4.485000000     6.646000000    -0.863000000
H     4.315000000     7.694000000    -0.629000000
C     5.162000000     5.851000000     0.018000000
H     5.584000000     6.368000000     0.876000000
C     5.319000000     4.488000000    -0.284000000
O     6.165000000     3.709000000     0.466000000
C     5.711000000     2.890000000     1.468000000
C     6.493000000     1.715000000     1.687000000
H     7.439000000     1.560000000     1.175000000
C     6.153000000     0.803000000     2.629000000
O     6.947000000    -0.271000000     2.893000000
C     6.441000000    -1.602000000     2.997000000
C     5.796000000    -2.233000000     1.911000000
H     5.874000000    -1.832000000     0.904000000
C     6.357000000    -2.196000000     4.293000000
H     6.796000000    -1.693000000     5.151000000
C     5.749000000    -3.432000000     4.405000000
H     5.676000000    -3.874000000     5.395000000
C     5.184000000    -4.085000000     3.322000000
H     4.623000000    -4.990000000     3.541000000
C     5.174000000    -3.478000000     2.095000000
O     4.684000000    -4.158000000     1.032000000
C     3.356000000    -4.429000000     0.788000000
C     2.959000000    -5.204000000    -0.335000000
H     3.765000000    -5.581000000    -0.958000000
C     1.632000000    -5.507000000    -0.622000000
O     1.332000000    -6.284000000    -1.717000000
C     0.005000000    -6.462000000    -2.242000000
C    -0.585000000    -5.495000000    -3.027000000
H     0.019000000    -4.636000000    -3.310000000
C    -0.651000000    -7.634000000    -1.995000000
H    -0.133000000    -8.375000000    -1.392000000
C    -1.886000000    -7.892000000    -2.558000000
H    -2.371000000    -8.862000000    -2.475000000
C    -2.518000000    -6.945000000    -3.369000000
H    -3.404000000    -7.118000000    -3.976000000
C    -1.859000000    -5.734000000    -3.629000000
O    -2.327000000    -4.990000000    -4.657000000
C    -2.720000000    -3.680000000    -4.499000000
C    -2.629000000    -2.794000000    -5.531000000
H    -2.361000000    -3.038000000    -6.556000000
C    -2.852000000    -1.455000000    -5.300000000
O    -2.843000000    -0.607000000    -6.380000000
C    -2.925000000     0.769000000    -6.391000000
C    -4.036000000     1.331000000    -7.011000000
H    -4.822000000     0.714000000    -7.438000000
C    -4.116000000     2.695000000    -7.093000000
H    -4.947000000     3.187000000    -7.591000000
C    -3.108000000     3.551000000    -6.605000000
H    -3.069000000     4.613000000    -6.832000000
C    -1.978000000     2.999000000    -5.991000000
C    -1.902000000     1.592000000    -5.758000000
H    -0.989000000     1.106000000    -5.422000000
C     1.544000000     0.883000000    -1.577000000
H     2.308000000     1.572000000    -1.927000000
C     1.134000000     0.832000000    -0.280000000
H     1.658000000     1.411000000     0.477000000
C     0.077000000     0.102000000     0.242000000
H    -0.267000000     0.214000000     1.244000000
C    -0.482000000    -0.792000000    -0.585000000
H    -1.308000000    -1.314000000    -0.109000000
C    -0.113000000    -0.874000000    -1.951000000
H    -0.591000000    -1.554000000    -2.652000000
C     0.921000000    -0.115000000    -2.369000000
C     1.312000000    -0.102000000    -3.807000000
O     0.675000000    -0.764000000    -4.621000000
O     2.341000000     0.487000000    -4.208000000
O    -0.063000000    -4.461000000    -7.249000000
H     0.139000000    -5.396000000    -7.208000000
H    -0.766000000    -4.396000000    -7.895000000
O     4.567000000    -0.412000000    -8.348000000
H     4.487000000    -1.297000000    -8.705000000
H     4.311000000    -0.500000000    -7.430000000
O     6.983000000     1.490000000    -2.591000000
H     6.338000000     1.131000000    -3.201000000
H     7.381000000     0.722000000    -2.184000000
O     1.674000000     1.321000000    -6.995000000
H     1.941000000     1.152000000    -6.092000000
H     1.117000000     0.576000000    -7.224000000
O     6.359000000    -2.330000000    -4.576000000
H     5.987000000    -1.659000000    -4.004000000
H     6.408000000    -3.113000000    -4.028000000
O     6.511000000     3.861000000    -4.726000000
H     7.097000000     3.244000000    -4.287000000
H     5.739000000     3.341000000    -4.949000000
O     1.271000000    -3.257000000    -5.274000000
H     0.692000000    -3.702000000    -5.893000000
H     0.757000000    -2.516000000    -4.954000000
O     5.824000000    -3.180000000    -7.022000000
H     4.906000000    -3.445000000    -7.084000000
H     5.914000000    -2.832000000    -6.135000000
O     5.078000000     2.267000000    -7.537000000
H     4.886000000     1.434000000    -7.969000000
H     4.868000000     2.113000000    -6.616000000
O     4.759000000    -0.405000000    -3.192000000
H     4.570000000    -1.136000000    -2.604000000
H     3.903000000    -0.019000000    -3.376000000
O     1.927000000    -0.629000000    -9.640000000
H     2.734000000    -0.159000000    -9.428000000
H     1.408000000    -0.588000000    -8.838000000
O     3.362000000    -4.014000000    -3.373000000
H     2.600000000    -3.864000000    -3.933000000
H     3.601000000    -4.927000000    -3.532000000
O     0.065000000    -0.950000000    -7.284000000
H     0.472000000    -1.067000000    -6.425000000
H    -0.871000000    -1.063000000    -7.123000000
O     6.485000000     0.279000000    -5.561000000
H     6.347000000    -0.558000000    -6.004000000
H     5.774000000     0.333000000    -4.923000000
O     4.102000000     2.312000000    -4.770000000
H     3.563000000     1.560000000    -4.523000000
H     3.776000000     3.029000000    -4.226000000
O     3.031000000    -1.395000000    -6.110000000
H     2.767000000    -2.314000000    -6.138000000
H     2.708000000    -1.078000000    -5.266000000
O     1.185000000     3.610000000    -8.320000000
H     1.225000000     3.523000000    -9.273000000
H     1.286000000     2.716000000    -7.994000000
O     4.248000000    -2.428000000    -1.455000000
H     3.815000000    -3.042000000    -2.048000000
H     3.613000000    -2.283000000    -0.753000000
O     6.567000000    -3.897000000    -2.020000000
H     6.434000000    -4.690000000    -1.501000000
H     5.750000000    -3.408000000    -1.923000000
