215
-1438.96839
C     4.207000000     0.649000000     3.527000000
H     3.677000000    -0.190000000     3.970000000
C     3.494000000     1.742000000     3.195000000
C     4.152000000     2.786000000     2.566000000
H     3.550000000     3.579000000     2.131000000
C     1.986000000     1.764000000     3.476000000
O     1.661000000     0.813000000     4.469000000
H     1.604000000     1.408000000     2.508000000
O     1.463000000     3.079000000     3.663000000
C     0.270000000     3.336000000     3.132000000
C     0.248000000     4.035000000     1.899000000
H     1.148000000     4.338000000     1.370000000
C    -0.917000000     4.248000000     1.236000000
O    -0.748000000     4.787000000     0.011000000
C    -2.136000000     3.916000000     1.873000000
C    -3.440000000     4.187000000     1.074000000
H    -4.179000000     4.444000000     1.836000000
C    -3.833000000     3.130000000    -0.001000000
C    -4.585000000     2.056000000     0.454000000
H    -5.027000000     2.131000000     1.444000000
H    -3.261000000     5.096000000     0.495000000
C    -2.122000000     3.250000000     3.119000000
H    -3.024000000     3.015000000     3.678000000
C    -0.909000000     2.931000000     3.716000000
C    -0.887000000     2.164000000     5.037000000
H    -1.783000000     2.349000000     5.634000000
H    -0.035000000     2.512000000     5.624000000
C    -0.777000000     0.677000000     4.683000000
C    -1.925000000    -0.118000000     4.720000000
H    -2.893000000     0.366000000     4.829000000
C     0.464000000     0.117000000     4.360000000
C     0.585000000    -1.228000000     4.191000000
H     1.504000000    -1.755000000     3.945000000
C    -0.602000000    -2.014000000     4.092000000
O    -0.401000000    -3.317000000     3.613000000
C    -0.507000000    -3.505000000     2.231000000
C     0.615000000    -4.381000000     1.753000000
C     0.417000000    -5.222000000     0.676000000
H    -0.572000000    -5.166000000     0.228000000
C     1.903000000    -4.215000000     2.294000000
H     2.085000000    -3.468000000     3.062000000
O    -1.786000000    -4.017000000     2.013000000
H    -0.564000000    -2.507000000     1.772000000
C    -1.829000000    -1.475000000     4.312000000
C    -3.047000000    -2.334000000     4.061000000
H    -3.938000000    -2.063000000     4.631000000
H    -2.750000000    -3.333000000     4.388000000
C    -3.415000000    -2.321000000     2.580000000
C    -4.302000000    -1.372000000     2.025000000
H    -4.841000000    -0.703000000     2.690000000
C    -2.799000000    -3.176000000     1.701000000
C    -3.188000000    -3.115000000     0.356000000
H    -2.740000000    -3.791000000    -0.367000000
C    -4.044000000    -2.200000000    -0.190000000
O    -4.372000000    -2.146000000    -1.534000000
C    -3.583000000    -1.146000000    -2.256000000
C    -2.936000000    -1.652000000    -3.567000000
C    -2.067000000    -2.742000000    -3.532000000
H    -1.915000000    -3.200000000    -2.558000000
C    -3.102000000    -1.012000000    -4.779000000
H    -3.621000000    -0.065000000    -4.905000000
O    -4.412000000     0.034000000    -2.468000000
H    -2.727000000    -0.821000000    -1.646000000
C    -4.629000000    -1.310000000     0.691000000
C    -5.592000000    -0.251000000     0.140000000
H    -6.285000000     0.119000000     0.899000000
H    -6.307000000    -0.696000000    -0.555000000
C    -4.867000000     1.024000000    -0.369000000
C    -4.322000000     1.081000000    -1.640000000
C    -3.617000000     2.171000000    -2.089000000
H    -3.184000000     2.082000000    -3.082000000
C    -3.387000000     3.211000000    -1.286000000
O    -2.391000000     4.066000000    -1.629000000
C    -1.011000000     3.907000000    -1.126000000
H    -0.935000000     2.849000000    -0.834000000
C     0.017000000     4.003000000    -2.277000000
C     1.330000000     4.258000000    -1.989000000
H     1.576000000     4.475000000    -0.953000000
C    -0.322000000     3.651000000    -3.603000000
H    -1.370000000     3.521000000    -3.858000000
C     0.765000000     3.409000000    -4.488000000
O     0.527000000     2.753000000    -5.709000000
C     2.058000000     3.583000000    -4.127000000
H     2.836000000     3.361000000    -4.852000000
C     2.365000000     4.016000000    -2.859000000
O     3.734000000     4.133000000    -2.512000000
C     4.202000000     4.704000000    -1.357000000
C     4.936000000     3.894000000    -0.467000000
H     5.230000000     2.872000000    -0.693000000
C     4.004000000     6.046000000    -1.099000000
H     3.458000000     6.660000000    -1.811000000
C     4.498000000     6.727000000     0.025000000
H     4.318000000     7.781000000     0.222000000
C     5.224000000     5.951000000     0.893000000
H     5.692000000     6.417000000     1.757000000
C     5.459000000     4.556000000     0.690000000
O     6.091000000     3.809000000     1.690000000
C     5.514000000     2.666000000     2.243000000
C     6.268000000     1.558000000     2.592000000
H     7.317000000     1.431000000     2.337000000
C     5.600000000     0.549000000     3.300000000
O     6.321000000    -0.540000000     3.726000000
C     5.678000000    -1.697000000     3.936000000
C     5.426000000    -2.604000000     2.929000000
H     5.829000000    -2.422000000     1.937000000
C     5.292000000    -1.954000000     5.217000000
H     5.615000000    -1.303000000     6.026000000
C     4.517000000    -3.112000000     5.479000000
H     4.083000000    -3.244000000     6.467000000
C     4.210000000    -4.023000000     4.486000000
H     3.746000000    -4.990000000     4.667000000
C     4.636000000    -3.688000000     3.192000000
O     4.296000000    -4.586000000     2.207000000
C     3.013000000    -4.862000000     1.681000000
C     2.734000000    -5.842000000     0.755000000
H     3.637000000    -6.315000000     0.378000000
C     1.508000000    -5.912000000     0.110000000
O     1.342000000    -6.678000000    -1.034000000
C     0.320000000    -6.599000000    -1.904000000
C     0.369000000    -5.589000000    -2.872000000
H     1.155000000    -4.839000000    -2.853000000
C    -0.729000000    -7.491000000    -1.827000000
H    -0.722000000    -8.254000000    -1.053000000
C    -1.784000000    -7.289000000    -2.720000000
H    -2.670000000    -7.902000000    -2.578000000
C    -1.817000000    -6.305000000    -3.706000000
H    -2.687000000    -6.123000000    -4.331000000
C    -0.691000000    -5.470000000    -3.865000000
O    -0.667000000    -4.370000000    -4.700000000
C    -1.581000000    -3.375000000    -4.691000000
C    -1.765000000    -2.744000000    -5.890000000
H    -1.402000000    -3.155000000    -6.829000000
C    -2.397000000    -1.508000000    -5.916000000
O    -2.444000000    -0.759000000    -7.046000000
C    -2.097000000     0.579000000    -7.100000000
C    -2.954000000     1.527000000    -7.603000000
H    -3.858000000     1.212000000    -8.120000000
C    -2.652000000     2.939000000    -7.406000000
H    -3.509000000     3.574000000    -7.615000000
C    -1.487000000     3.344000000    -6.778000000
H    -1.250000000     4.394000000    -6.626000000
C    -0.662000000     2.383000000    -6.257000000
C    -0.933000000     1.040000000    -6.477000000
H    -0.195000000     0.312000000    -6.148000000
C     1.494000000     0.707000000    -1.981000000
H     2.152000000     1.466000000    -2.396000000
C     0.974000000     0.960000000    -0.708000000
H     1.217000000     1.927000000    -0.274000000
C     0.202000000     0.088000000    -0.006000000
H    -0.183000000     0.333000000     0.934000000
C    -0.049000000    -1.184000000    -0.562000000
H    -0.649000000    -1.953000000    -0.082000000
C     0.550000000    -1.519000000    -1.785000000
H     0.408000000    -2.514000000    -2.198000000
C     1.387000000    -0.566000000    -2.490000000
C     2.209000000    -1.000000000    -3.673000000
O     2.388000000    -2.159000000    -3.938000000
O     2.611000000    -0.151000000    -4.422000000
O     1.439000000    -7.092000000    -6.881000000
H     1.546000000    -6.299000000    -6.356000000
H     0.985000000    -7.703000000    -6.300000000
O     1.959000000     0.966000000    -7.111000000
H     1.332000000     1.689000000    -7.110000000
H     2.186000000     0.844000000    -6.189000000
O     3.297000000    -0.064000000    -9.320000000
H     3.795000000    -0.819000000    -9.005000000
H     2.835000000     0.258000000    -8.546000000
O     0.103000000    -1.732000000    -8.881000000
H     0.586000000    -2.447000000    -9.295000000
H     0.462000000    -1.682000000    -7.995000000
O     3.345000000    -3.907000000    -8.283000000
H     3.914000000    -3.199000000    -8.586000000
H     2.930000000    -3.559000000    -7.493000000
O     2.075000000    -4.692000000    -5.756000000
H     2.721000000    -4.314000000    -5.159000000
H     1.246000000    -4.290000000    -5.497000000
O     5.593000000    -3.682000000    -1.504000000
H     5.980000000    -3.795000000    -0.636000000
H     6.171000000    -3.059000000    -1.944000000
O     5.233000000    -1.744000000    -8.447000000
H     6.176000000    -1.854000000    -8.569000000
H     5.139000000    -1.472000000    -7.534000000
O     7.088000000     0.483000000    -2.304000000
H     7.566000000     1.143000000    -1.801000000
H     6.471000000     0.987000000    -2.834000000
O     5.385000000    -4.993000000    -6.261000000
H     5.456000000    -4.042000000    -6.189000000
H     4.562000000    -5.137000000    -6.729000000
O     5.019000000     1.941000000    -6.061000000
H     5.337000000     2.648000000    -5.500000000
H     4.787000000     1.239000000    -5.452000000
O     3.895000000    -4.373000000    -3.726000000
H     3.389000000    -3.568000000    -3.618000000
H     4.661000000    -4.252000000    -3.165000000
O     2.087000000    -1.831000000    -6.820000000
H     2.592000000    -1.051000000    -7.050000000
H     2.208000000    -1.924000000    -5.875000000
O     4.596000000     0.923000000    -3.297000000
H     3.798000000     0.600000000    -3.714000000
H     4.311000000     1.682000000    -2.788000000
O     4.717000000    -1.065000000    -5.911000000
H     5.538000000    -1.140000000    -5.424000000
H     4.062000000    -0.853000000    -5.247000000
O     8.012000000    -2.264000000    -2.383000000
H     8.938000000    -2.257000000    -2.140000000
H     7.722000000    -1.362000000    -2.248000000
O     3.986000000    -1.758000000    -0.035000000
H     3.988000000    -2.518000000    -0.617000000
H     3.077000000    -1.459000000    -0.035000000
O     6.743000000    -0.773000000     0.108000000
H     6.690000000    -0.418000000    -0.780000000
H     5.860000000    -1.098000000     0.288000000
O     4.441000000    -6.985000000    -3.351000000
H     5.053000000    -6.813000000    -4.066000000
H     4.026000000    -6.139000000    -3.183000000
