215
-1449.87709
C     4.354000000     0.714000000     3.616000000
H     3.980000000    -0.062000000     4.280000000
C     3.541000000     1.774000000     3.212000000
C     4.047000000     2.816000000     2.488000000
H     3.355000000     3.634000000     2.307000000
C     2.010000000     1.766000000     3.667000000
O     1.679000000     0.799000000     4.727000000
H     1.471000000     1.373000000     2.792000000
O     1.434000000     3.061000000     3.941000000
C     0.174000000     3.379000000     3.344000000
C     0.109000000     4.110000000     2.162000000
H     1.079000000     4.426000000     1.786000000
C    -1.094000000     4.317000000     1.406000000
O    -1.066000000     4.875000000     0.178000000
C    -2.276000000     3.781000000     1.957000000
C    -3.586000000     4.016000000     1.268000000
H    -4.412000000     4.081000000     1.979000000
C    -3.923000000     2.933000000     0.217000000
C    -4.630000000     1.819000000     0.615000000
H    -5.021000000     1.884000000     1.627000000
H    -3.589000000     5.011000000     0.818000000
C    -2.260000000     3.062000000     3.132000000
H    -3.196000000     2.699000000     3.547000000
C    -1.015000000     2.809000000     3.826000000
C    -0.965000000     1.949000000     5.066000000
H    -1.864000000     2.170000000     5.646000000
H    -0.137000000     2.354000000     5.653000000
C    -0.757000000     0.525000000     4.919000000
C    -1.845000000    -0.350000000     4.706000000
H    -2.821000000     0.055000000     4.960000000
C     0.552000000     0.048000000     4.608000000
C     0.751000000    -1.214000000     4.137000000
H     1.767000000    -1.544000000     3.936000000
C    -0.318000000    -2.068000000     3.852000000
O    -0.007000000    -3.331000000     3.357000000
C    -0.387000000    -3.657000000     2.061000000
C     0.792000000    -4.405000000     1.436000000
C     0.577000000    -5.458000000     0.517000000
H    -0.408000000    -5.868000000     0.304000000
C     2.107000000    -3.897000000     1.571000000
H     2.320000000    -3.031000000     2.193000000
O    -1.703000000    -4.352000000     1.997000000
H    -0.526000000    -2.765000000     1.434000000
C    -1.608000000    -1.647000000     4.200000000
C    -2.784000000    -2.522000000     4.055000000
H    -3.595000000    -2.121000000     4.666000000
H    -2.568000000    -3.556000000     4.334000000
C    -3.360000000    -2.669000000     2.600000000
C    -4.240000000    -1.701000000     2.096000000
H    -4.642000000    -1.035000000     2.855000000
C    -2.797000000    -3.538000000     1.678000000
C    -3.199000000    -3.491000000     0.362000000
H    -2.808000000    -4.109000000    -0.442000000
C    -4.133000000    -2.528000000    -0.128000000
O    -4.426000000    -2.435000000    -1.461000000
C    -3.712000000    -1.468000000    -2.146000000
C    -3.156000000    -1.918000000    -3.475000000
C    -2.426000000    -3.083000000    -3.561000000
H    -2.441000000    -3.717000000    -2.678000000
C    -3.117000000    -1.101000000    -4.621000000
H    -3.606000000    -0.130000000    -4.599000000
O    -4.524000000    -0.336000000    -2.346000000
H    -2.860000000    -1.133000000    -1.535000000
C    -4.624000000    -1.626000000     0.786000000
C    -5.559000000    -0.543000000     0.331000000
H    -6.180000000    -0.239000000     1.177000000
H    -6.257000000    -1.043000000    -0.344000000
C    -4.766000000     0.665000000    -0.156000000
C    -4.300000000     0.743000000    -1.510000000
C    -3.689000000     1.915000000    -2.000000000
H    -3.266000000     1.956000000    -3.000000000
C    -3.369000000     2.912000000    -1.062000000
O    -2.643000000     4.017000000    -1.414000000
C    -1.264000000     3.903000000    -0.916000000
H    -1.053000000     2.906000000    -0.502000000
C    -0.190000000     4.068000000    -1.996000000
C     1.083000000     4.533000000    -1.713000000
H     1.278000000     4.817000000    -0.683000000
C    -0.494000000     3.789000000    -3.334000000
H    -1.473000000     3.378000000    -3.568000000
C     0.502000000     3.953000000    -4.359000000
O     0.235000000     3.769000000    -5.693000000
C     1.784000000     4.216000000    -3.978000000
H     2.535000000     4.265000000    -4.762000000
C     2.101000000     4.450000000    -2.666000000
O     3.402000000     4.799000000    -2.312000000
C     3.899000000     5.281000000    -1.118000000
C     4.769000000     4.461000000    -0.385000000
H     5.023000000     3.482000000    -0.782000000
C     3.733000000     6.573000000    -0.716000000
H     3.183000000     7.313000000    -1.291000000
C     4.147000000     6.911000000     0.525000000
H     3.916000000     7.916000000     0.869000000
C     4.884000000     6.092000000     1.336000000
H     5.381000000     6.473000000     2.224000000
C     5.281000000     4.898000000     0.839000000
O     5.986000000     3.949000000     1.537000000
C     5.410000000     2.814000000     2.174000000
C     6.178000000     1.708000000     2.517000000
H     7.146000000     1.602000000     2.034000000
C     5.657000000     0.692000000     3.263000000
O     6.439000000    -0.476000000     3.491000000
C     5.938000000    -1.749000000     3.551000000
C     5.483000000    -2.280000000     2.339000000
H     5.624000000    -1.674000000     1.448000000
C     5.833000000    -2.437000000     4.752000000
H     6.133000000    -2.076000000     5.732000000
C     5.192000000    -3.698000000     4.625000000
H     4.961000000    -4.388000000     5.433000000
C     4.760000000    -4.202000000     3.416000000
H     4.294000000    -5.183000000     3.388000000
C     4.912000000    -3.465000000     2.289000000
O     4.416000000    -3.827000000     1.055000000
C     3.173000000    -4.451000000     0.817000000
C     2.925000000    -5.473000000    -0.071000000
H     3.702000000    -5.726000000    -0.787000000
C     1.628000000    -5.932000000    -0.311000000
O     1.467000000    -6.888000000    -1.233000000
C     0.596000000    -6.758000000    -2.333000000
C     0.376000000    -5.513000000    -2.982000000
H     0.968000000    -4.652000000    -2.683000000
C    -0.147000000    -7.875000000    -2.676000000
H    -0.022000000    -8.823000000    -2.160000000
C    -1.179000000    -7.785000000    -3.597000000
H    -1.791000000    -8.664000000    -3.782000000
C    -1.433000000    -6.617000000    -4.222000000
H    -2.288000000    -6.509000000    -4.885000000
C    -0.638000000    -5.499000000    -3.947000000
O    -0.739000000    -4.397000000    -4.762000000
C    -1.611000000    -3.354000000    -4.664000000
C    -1.516000000    -2.492000000    -5.716000000
H    -0.898000000    -2.546000000    -6.608000000
C    -2.323000000    -1.337000000    -5.694000000
O    -2.018000000    -0.349000000    -6.636000000
C    -2.106000000     0.978000000    -6.383000000
C    -3.284000000     1.728000000    -6.577000000
H    -4.147000000     1.193000000    -6.968000000
C    -3.283000000     3.140000000    -6.362000000
H    -4.197000000     3.712000000    -6.502000000
C    -2.069000000     3.807000000    -6.058000000
H    -2.049000000     4.884000000    -5.914000000
C    -0.899000000     3.052000000    -5.980000000
C    -0.884000000     1.681000000    -6.164000000
H     0.051000000     1.128000000    -6.188000000
C     1.373000000     0.654000000    -1.460000000
H     2.043000000     1.466000000    -1.730000000
C     0.920000000     0.508000000    -0.166000000
H     1.230000000     1.176000000     0.633000000
C     0.069000000    -0.550000000     0.158000000
H    -0.268000000    -0.680000000     1.157000000
C    -0.242000000    -1.519000000    -0.773000000
H    -0.906000000    -2.361000000    -0.596000000
C     0.239000000    -1.340000000    -2.075000000
H     0.053000000    -2.140000000    -2.787000000
C     1.022000000    -0.268000000    -2.473000000
C     1.515000000    -0.034000000    -3.870000000
O     1.451000000    -0.996000000    -4.637000000
O     2.104000000     0.993000000    -4.189000000
O     2.971000000    -5.079000000    -6.255000000
H     2.430000000    -5.866000000    -6.323000000
H     3.864000000    -5.387000000    -6.409000000
O     2.829000000     1.736000000    -6.621000000
H     2.879000000     2.680000000    -6.467000000
H     2.461000000     1.381000000    -5.812000000
O     3.657000000    -2.113000000    -9.430000000
H     4.406000000    -2.555000000    -9.030000000
H     2.985000000    -2.117000000    -8.748000000
O     1.378000000    -3.740000000    -8.111000000
H     1.158000000    -2.902000000    -7.704000000
H     1.853000000    -4.219000000    -7.433000000
O     2.953000000    -2.880000000    -3.511000000
H     2.898000000    -3.530000000    -4.211000000
H     2.329000000    -2.200000000    -3.766000000
O     5.917000000     4.321000000    -6.335000000
H     6.035000000     4.108000000    -5.409000000
H     6.496000000     3.713000000    -6.796000000
O     5.958000000     0.750000000    -1.130000000
H     5.230000000     0.384000000    -0.627000000
H     5.548000000     1.124000000    -1.910000000
O     6.439000000     4.432000000    -3.418000000
H     6.878000000     4.476000000    -2.568000000
H     6.278000000     5.346000000    -3.652000000
O     5.243000000     0.964000000    -8.269000000
H     5.933000000     1.577000000    -8.015000000
H     4.617000000     0.995000000    -7.546000000
O     4.969000000    -2.769000000    -1.721000000
H     4.158000000    -3.258000000    -1.860000000
H     5.115000000    -2.308000000    -2.547000000
O     1.184000000    -1.195000000    -7.119000000
H     1.276000000    -1.245000000    -6.167000000
H     1.377000000    -0.282000000    -7.330000000
O    -1.319000000     0.045000000    -9.665000000
H    -0.897000000    -0.744000000   -10.008000000
H    -0.594000000     0.636000000    -9.465000000
O     3.573000000     4.472000000    -7.535000000
H     3.988000000     3.619000000    -7.665000000
H     4.241000000     4.999000000    -7.096000000
O     7.416000000    -1.686000000    -4.833000000
H     7.554000000    -1.399000000    -5.736000000
H     6.534000000    -1.382000000    -4.618000000
O     0.677000000    -0.660000000   -11.338000000
H     1.050000000    -0.824000000   -10.472000000
H     0.627000000     0.294000000   -11.401000000
O     1.560000000     1.172000000    -9.041000000
H     1.618000000     1.810000000    -9.752000000
H     2.078000000     1.555000000    -8.333000000
O     4.447000000     1.845000000    -3.439000000
H     3.561000000     1.643000000    -3.737000000
H     4.500000000     2.800000000    -3.475000000
O     4.913000000    -1.005000000    -4.142000000
H     4.692000000    -0.102000000    -3.915000000
H     4.073000000    -1.411000000    -4.356000000
O     3.738000000    -0.683000000    -0.328000000
H     3.982000000    -1.461000000    -0.829000000
H     2.792000000    -0.605000000    -0.453000000
