215
-1469.48504
C     3.676000000     1.390000000     3.220000000
H     3.294000000     0.570000000     3.823000000
C     2.879000000     2.477000000     2.915000000
C     3.433000000     3.565000000     2.236000000
H     2.746000000     4.377000000     2.010000000
C     1.364000000     2.437000000     3.333000000
O     1.084000000     1.774000000     4.637000000
H     0.807000000     1.916000000     2.539000000
O     0.812000000     3.734000000     3.385000000
C    -0.405000000     3.895000000     2.670000000
C    -0.335000000     4.350000000     1.355000000
H     0.610000000     4.647000000     0.905000000
C    -1.489000000     4.325000000     0.593000000
O    -1.304000000     4.717000000    -0.734000000
C    -2.680000000     3.829000000     1.068000000
C    -3.958000000     3.883000000     0.194000000
H    -4.789000000     3.879000000     0.902000000
C    -4.081000000     2.574000000    -0.540000000
C    -4.681000000     1.423000000     0.034000000
H    -4.953000000     1.398000000     1.086000000
H    -4.027000000     4.808000000    -0.383000000
C    -2.760000000     3.361000000     2.397000000
H    -3.528000000     2.715000000     2.815000000
C    -1.585000000     3.403000000     3.178000000
C    -1.708000000     2.832000000     4.583000000
H    -2.690000000     2.916000000     5.053000000
H    -1.002000000     3.281000000     5.284000000
C    -1.325000000     1.333000000     4.591000000
C    -2.341000000     0.370000000     4.538000000
H    -3.390000000     0.609000000     4.382000000
C     0.000000000     0.896000000     4.589000000
C     0.336000000    -0.480000000     4.537000000
H     1.390000000    -0.743000000     4.568000000
C    -0.652000000    -1.466000000     4.560000000
O    -0.311000000    -2.803000000     4.440000000
C    -0.314000000    -3.321000000     3.028000000
C     0.980000000    -4.107000000     2.629000000
C     0.881000000    -4.938000000     1.485000000
H    -0.052000000    -5.050000000     0.939000000
C     2.185000000    -3.993000000     3.374000000
H     2.323000000    -3.279000000     4.181000000
O    -1.619000000    -3.996000000     2.831000000
H    -0.326000000    -2.517000000     2.278000000
C    -1.994000000    -1.006000000     4.458000000
C    -3.136000000    -1.962000000     4.268000000
H    -4.064000000    -1.519000000     4.634000000
H    -3.047000000    -2.905000000     4.811000000
C    -3.386000000    -2.317000000     2.834000000
C    -4.271000000    -1.555000000     2.031000000
H    -4.686000000    -0.659000000     2.484000000
C    -2.619000000    -3.283000000     2.177000000
C    -2.720000000    -3.419000000     0.790000000
H    -2.049000000    -4.104000000     0.278000000
C    -3.625000000    -2.719000000     0.047000000
O    -3.716000000    -2.925000000    -1.299000000
C    -3.137000000    -1.963000000    -2.216000000
C    -2.385000000    -2.667000000    -3.334000000
C    -2.010000000    -4.040000000    -3.229000000
H    -2.258000000    -4.661000000    -2.372000000
C    -1.853000000    -1.897000000    -4.368000000
H    -2.208000000    -0.872000000    -4.441000000
O    -4.088000000    -1.040000000    -2.711000000
H    -2.361000000    -1.389000000    -1.689000000
C    -4.487000000    -1.855000000     0.684000000
C    -5.424000000    -0.976000000    -0.140000000
H    -6.188000000    -0.556000000     0.518000000
H    -5.771000000    -1.576000000    -0.984000000
C    -4.711000000     0.264000000    -0.705000000
C    -4.150000000     0.144000000    -1.968000000
C    -3.447000000     1.214000000    -2.440000000
H    -2.945000000     1.086000000    -3.396000000
C    -3.402000000     2.437000000    -1.776000000
O    -2.535000000     3.390000000    -2.253000000
C    -1.303000000     3.580000000    -1.707000000
H    -1.039000000     2.711000000    -1.087000000
C    -0.298000000     3.763000000    -2.793000000
C     0.903000000     4.390000000    -2.543000000
H     1.147000000     4.825000000    -1.577000000
C    -0.450000000     3.122000000    -4.010000000
H    -1.295000000     2.493000000    -4.277000000
C     0.494000000     3.286000000    -5.027000000
O     0.380000000     2.887000000    -6.341000000
C     1.652000000     4.090000000    -4.726000000
H     2.474000000     4.224000000    -5.425000000
C     1.900000000     4.575000000    -3.449000000
O     3.067000000     5.304000000    -3.279000000
C     3.428000000     5.852000000    -2.034000000
C     3.978000000     5.014000000    -1.099000000
H     3.937000000     3.938000000    -1.247000000
C     3.495000000     7.231000000    -1.818000000
H     3.043000000     7.841000000    -2.596000000
C     4.186000000     7.697000000    -0.725000000
H     4.261000000     8.757000000    -0.496000000
C     4.704000000     6.877000000     0.203000000
H     5.175000000     7.180000000     1.135000000
C     4.572000000     5.475000000     0.058000000
O     5.233000000     4.686000000     0.957000000
C     4.686000000     3.569000000     1.636000000
C     5.438000000     2.359000000     1.768000000
H     6.398000000     2.274000000     1.264000000
C     4.909000000     1.305000000     2.524000000
O     5.692000000     0.170000000     2.547000000
C     5.466000000    -0.825000000     3.448000000
C     4.950000000    -2.042000000     2.986000000
H     4.587000000    -2.201000000     1.974000000
C     5.632000000    -0.594000000     4.856000000
H     6.027000000     0.354000000     5.210000000
C     5.487000000    -1.697000000     5.661000000
H     5.502000000    -1.653000000     6.747000000
C     5.179000000    -2.941000000     5.216000000
H     5.120000000    -3.712000000     5.980000000
C     4.914000000    -3.178000000     3.825000000
O     4.530000000    -4.432000000     3.310000000
C     3.286000000    -4.699000000     2.866000000
C     3.225000000    -5.484000000     1.707000000
H     4.106000000    -5.999000000     1.331000000
C     2.030000000    -5.558000000     1.043000000
O     2.043000000    -6.190000000    -0.226000000
C     0.917000000    -6.584000000    -0.922000000
C     0.592000000    -6.031000000    -2.109000000
H     1.170000000    -5.167000000    -2.425000000
C     0.117000000    -7.594000000    -0.408000000
H     0.434000000    -7.914000000     0.581000000
C    -1.018000000    -8.023000000    -1.075000000
H    -1.752000000    -8.685000000    -0.623000000
C    -1.259000000    -7.581000000    -2.364000000
H    -2.194000000    -7.775000000    -2.883000000
C    -0.490000000    -6.518000000    -2.816000000
O    -0.777000000    -5.933000000    -4.031000000
C    -1.223000000    -4.623000000    -4.160000000
C    -0.825000000    -3.886000000    -5.254000000
H    -0.190000000    -4.354000000    -6.002000000
C    -1.104000000    -2.538000000    -5.373000000
O    -0.545000000    -1.851000000    -6.451000000
C    -0.897000000    -0.559000000    -6.778000000
C    -2.092000000    -0.202000000    -7.444000000
H    -2.843000000    -0.938000000    -7.718000000
C    -2.441000000     1.162000000    -7.721000000
H    -3.295000000     1.541000000    -8.277000000
C    -1.544000000     2.157000000    -7.365000000
H    -1.901000000     3.182000000    -7.411000000
C    -0.332000000     1.820000000    -6.713000000
C    -0.043000000     0.464000000    -6.383000000
H     0.847000000     0.110000000    -5.870000000
C     2.442000000     0.839000000    -0.794000000
H     3.268000000     1.527000000    -0.953000000
C     1.131000000     1.208000000    -0.424000000
H     0.817000000     2.245000000    -0.326000000
C     0.076000000     0.328000000    -0.152000000
H    -0.917000000     0.664000000     0.164000000
C     0.285000000    -1.047000000    -0.276000000
H    -0.558000000    -1.691000000    -0.039000000
C     1.608000000    -1.482000000    -0.604000000
H     1.782000000    -2.549000000    -0.713000000
C     2.703000000    -0.560000000    -0.841000000
C     4.000000000    -1.201000000    -1.315000000
O     4.043000000    -2.390000000    -1.503000000
O     4.990000000    -0.561000000    -1.722000000
O     6.185000000    -6.991000000    -0.736000000
H     6.318000000    -6.420000000     0.020000000
H     7.064000000    -7.134000000    -1.087000000
O     7.961000000     3.815000000    -0.355000000
H     7.286000000     4.409000000    -0.027000000
H     7.474000000     3.065000000    -0.698000000
O     4.677000000     0.473000000    -6.587000000
H     4.988000000     1.375000000    -6.520000000
H     4.311000000     0.281000000    -5.724000000
O     2.514000000    -2.713000000    -6.755000000
H     3.447000000    -2.902000000    -6.650000000
H     2.166000000    -2.723000000    -5.863000000
O     5.652000000    -5.539000000    -4.447000000
H     4.983000000    -5.528000000    -3.762000000
H     6.482000000    -5.532000000    -3.971000000
O     7.525000000    -2.529000000    -6.212000000
H     7.762000000    -2.152000000    -5.365000000
H     7.930000000    -3.396000000    -6.209000000
O     2.422000000    -3.332000000    -4.041000000
H     2.688000000    -4.202000000    -3.745000000
H     3.001000000    -2.732000000    -3.572000000
O     4.872000000    -3.429000000    -5.989000000
H     4.913000000    -4.300000000    -5.594000000
H     5.784000000    -3.209000000    -6.180000000
O     9.008000000     1.215000000    -2.555000000
H     9.738000000     1.074000000    -1.953000000
H     8.296000000     1.530000000    -1.999000000
O     5.193000000     2.830000000    -3.447000000
H     4.737000000     3.660000000    -3.312000000
H     5.779000000     2.996000000    -4.186000000
O     3.890000000    -5.031000000    -2.256000000
H     3.885000000    -4.115000000    -1.979000000
H     3.541000000    -5.511000000    -1.505000000
O     3.760000000     0.186000000    -4.043000000
H     4.469000000     0.091000000    -3.406000000
H     3.178000000     0.842000000    -3.657000000
O     6.571000000     1.803000000    -1.480000000
H     6.369000000     0.870000000    -1.551000000
H     6.043000000     2.215000000    -2.164000000
O     6.120000000    -1.913000000    -3.521000000
H     5.510000000    -2.006000000    -4.253000000
H     5.576000000    -1.611000000    -2.793000000
O     9.004000000     1.019000000     1.340000000
H     9.037000000     1.543000000     0.540000000
H     8.578000000     0.204000000     1.075000000
O     6.504000000    -3.369000000    -0.820000000
H     6.789000000    -3.716000000    -1.666000000
H     5.877000000    -2.681000000    -1.042000000
O     7.711000000    -1.280000000     0.946000000
H     7.811000000    -2.000000000     0.323000000
H     6.766000000    -1.203000000     1.073000000
O     7.601000000    -4.845000000     0.950000000
H     7.326000000    -4.201000000     0.297000000
H     7.004000000    -4.709000000     1.686000000
O     8.720000000    -1.830000000    -3.850000000
H     7.830000000    -1.912000000    -3.506000000
H     8.966000000    -0.924000000    -3.666000000
