215
-1439.40069
C     4.163000000     1.449000000     2.609000000
H     4.028000000     0.477000000     3.077000000
C     3.189000000     2.449000000     2.525000000
C     3.495000000     3.706000000     1.847000000
H     2.631000000     4.322000000     1.611000000
C     1.799000000     2.209000000     3.058000000
O     1.827000000     1.471000000     4.314000000
H     1.244000000     1.689000000     2.263000000
O     1.169000000     3.495000000     3.419000000
C    -0.188000000     3.712000000     3.138000000
C    -0.488000000     4.403000000     1.990000000
H     0.219000000     5.077000000     1.512000000
C    -1.769000000     4.267000000     1.443000000
O    -1.966000000     4.806000000     0.184000000
C    -2.728000000     3.513000000     2.121000000
C    -4.150000000     3.345000000     1.560000000
H    -4.853000000     3.253000000     2.390000000
C    -4.263000000     2.141000000     0.693000000
C    -4.718000000     0.896000000     1.135000000
H    -5.075000000     0.776000000     2.155000000
H    -4.443000000     4.235000000     0.998000000
C    -2.427000000     2.834000000     3.297000000
H    -3.187000000     2.208000000     3.758000000
C    -1.112000000     2.924000000     3.769000000
C    -0.823000000     2.120000000     5.022000000
H    -1.714000000     2.011000000     5.643000000
H    -0.186000000     2.747000000     5.651000000
C    -0.393000000     0.654000000     4.812000000
C    -1.266000000    -0.422000000     4.772000000
H    -2.308000000    -0.165000000     4.944000000
C     0.974000000     0.417000000     4.458000000
C     1.420000000    -0.890000000     4.200000000
H     2.444000000    -1.012000000     3.858000000
C     0.484000000    -1.873000000     4.201000000
O     0.944000000    -3.047000000     3.650000000
C     0.621000000    -3.379000000     2.205000000
C     1.848000000    -3.922000000     1.478000000
C     1.599000000    -4.650000000     0.349000000
H     0.561000000    -4.909000000     0.159000000
C     3.156000000    -3.767000000     1.942000000
H     3.412000000    -3.235000000     2.855000000
O    -0.485000000    -4.323000000     2.211000000
H     0.292000000    -2.405000000     1.814000000
C    -0.877000000    -1.665000000     4.393000000
C    -1.905000000    -2.735000000     4.349000000
H    -2.790000000    -2.518000000     4.951000000
H    -1.514000000    -3.680000000     4.731000000
C    -2.476000000    -3.015000000     2.964000000
C    -3.645000000    -2.345000000     2.531000000
H    -4.234000000    -1.760000000     3.233000000
C    -1.761000000    -3.734000000     1.965000000
C    -2.329000000    -3.894000000     0.676000000
H    -1.894000000    -4.589000000    -0.037000000
C    -3.546000000    -3.317000000     0.371000000
O    -3.850000000    -3.283000000    -0.933000000
C    -3.379000000    -2.177000000    -1.775000000
C    -2.856000000    -2.705000000    -3.120000000
C    -2.423000000    -4.065000000    -3.319000000
H    -2.534000000    -4.873000000    -2.600000000
C    -2.607000000    -1.745000000    -4.100000000
H    -2.850000000    -0.722000000    -3.824000000
O    -4.370000000    -1.133000000    -1.919000000
H    -2.606000000    -1.575000000    -1.275000000
C    -4.168000000    -2.489000000     1.260000000
C    -5.266000000    -1.517000000     0.878000000
H    -5.972000000    -1.190000000     1.645000000
H    -5.909000000    -1.869000000     0.069000000
C    -4.671000000    -0.213000000     0.352000000
C    -4.277000000    -0.088000000    -1.008000000
C    -3.827000000     1.125000000    -1.392000000
H    -3.373000000     1.174000000    -2.379000000
C    -3.828000000     2.207000000    -0.581000000
O    -3.290000000     3.342000000    -1.129000000
C    -1.900000000     3.801000000    -0.859000000
H    -1.422000000     2.896000000    -0.457000000
C    -1.129000000     4.147000000    -2.154000000
C    -0.064000000     5.040000000    -2.063000000
H     0.165000000     5.583000000    -1.150000000
C    -1.339000000     3.476000000    -3.407000000
H    -2.119000000     2.726000000    -3.509000000
C    -0.676000000     3.809000000    -4.530000000
O    -0.970000000     3.340000000    -5.798000000
C     0.456000000     4.673000000    -4.441000000
H     1.133000000     4.875000000    -5.266000000
C     0.786000000     5.260000000    -3.192000000
O     1.929000000     6.002000000    -2.936000000
C     2.513000000     6.261000000    -1.705000000
C     3.565000000     5.522000000    -1.197000000
H     3.965000000     4.666000000    -1.735000000
C     2.057000000     7.310000000    -0.931000000
H     1.210000000     7.891000000    -1.287000000
C     2.656000000     7.671000000     0.250000000
H     2.296000000     8.395000000     0.976000000
C     3.767000000     6.834000000     0.714000000
H     4.218000000     7.006000000     1.688000000
C     4.203000000     5.810000000    -0.027000000
O     5.124000000     4.965000000     0.577000000
C     4.767000000     3.970000000     1.406000000
C     5.714000000     2.919000000     1.514000000
H     6.721000000     3.038000000     1.122000000
C     5.436000000     1.681000000     2.090000000
O     6.383000000     0.721000000     2.101000000
C     6.259000000    -0.552000000     2.683000000
C     5.978000000    -1.660000000     1.863000000
H     5.885000000    -1.510000000     0.791000000
C     6.608000000    -0.729000000     4.031000000
H     6.919000000     0.134000000     4.614000000
C     6.398000000    -2.004000000     4.597000000
H     6.545000000    -2.134000000     5.666000000
C     6.064000000    -3.101000000     3.774000000
H     5.828000000    -4.087000000     4.164000000
C     5.896000000    -2.942000000     2.401000000
O     5.486000000    -3.956000000     1.562000000
C     4.175000000    -4.228000000     1.168000000
C     3.924000000    -4.971000000     0.034000000
H     4.745000000    -5.358000000    -0.565000000
C     2.633000000    -5.184000000    -0.421000000
O     2.422000000    -5.677000000    -1.712000000
C     1.365000000    -6.334000000    -2.214000000
C     0.614000000    -5.645000000    -3.206000000
H     1.022000000    -4.690000000    -3.527000000
C     0.852000000    -7.500000000    -1.631000000
H     1.378000000    -7.973000000    -0.806000000
C    -0.287000000    -8.090000000    -2.162000000
H    -0.596000000    -9.036000000    -1.724000000
C    -0.929000000    -7.495000000    -3.243000000
H    -1.792000000    -7.998000000    -3.670000000
C    -0.496000000    -6.279000000    -3.728000000
O    -1.236000000    -5.660000000    -4.725000000
C    -1.738000000    -4.406000000    -4.515000000
C    -1.714000000    -3.475000000    -5.534000000
H    -1.322000000    -3.655000000    -6.532000000
C    -2.082000000    -2.122000000    -5.300000000
O    -1.980000000    -1.230000000    -6.442000000
C    -2.410000000     0.082000000    -6.375000000
C    -3.676000000     0.409000000    -6.796000000
H    -4.386000000    -0.357000000    -7.099000000
C    -4.090000000     1.702000000    -6.952000000
H    -5.062000000     1.945000000    -7.373000000
C    -3.141000000     2.716000000    -6.619000000
H    -3.463000000     3.751000000    -6.699000000
C    -1.887000000     2.409000000    -6.148000000
C    -1.506000000     1.127000000    -5.971000000
H    -0.532000000     0.880000000    -5.557000000
C     1.216000000     0.446000000    -2.582000000
H     1.648000000     1.140000000    -3.298000000
C     0.787000000     1.030000000    -1.412000000
H     1.096000000     2.062000000    -1.266000000
C     0.095000000     0.300000000    -0.466000000
H    -0.126000000     0.854000000     0.483000000
C    -0.238000000    -1.027000000    -0.724000000
H    -0.721000000    -1.623000000     0.046000000
C     0.222000000    -1.618000000    -1.893000000
H     0.011000000    -2.675000000    -2.038000000
C     0.844000000    -0.874000000    -2.874000000
C     1.371000000    -1.472000000    -4.108000000
O     1.602000000    -2.649000000    -4.151000000
O     1.817000000    -0.648000000    -4.873000000
O     1.917000000    -7.700000000    -5.512000000
H     1.010000000    -7.597000000    -5.798000000
H     2.181000000    -6.824000000    -5.232000000
O     4.821000000     0.593000000    -7.360000000
H     5.280000000     0.567000000    -8.199000000
H     5.311000000    -0.009000000    -6.800000000
O     4.105000000     3.854000000    -5.335000000
H     3.765000000     4.717000000    -5.572000000
H     3.771000000     3.269000000    -6.015000000
O     0.928000000     1.927000000    -9.175000000
H     1.394000000     1.961000000    -8.340000000
H     1.134000000     1.063000000    -9.530000000
O     2.548000000     1.891000000    -6.831000000
H     2.220000000     1.206000000    -6.249000000
H     3.407000000     1.575000000    -7.112000000
O     1.188000000    -4.276000000    -8.083000000
H     1.286000000    -4.284000000    -9.035000000
H     1.011000000    -3.360000000    -7.869000000
O     2.150000000    -4.677000000    -5.657000000
H     1.727000000    -4.564000000    -6.508000000
H     1.965000000    -3.863000000    -5.188000000
O     3.865000000    -2.287000000    -9.281000000
H     4.582000000    -2.422000000    -8.661000000
H     3.828000000    -3.100000000    -9.785000000
O     4.590000000    -5.556000000    -7.309000000
H     3.844000000    -5.492000000    -6.713000000
H     5.066000000    -6.333000000    -7.015000000
O     5.282000000     0.535000000    -1.035000000
H     4.432000000     0.217000000    -0.729000000
H     5.070000000     1.135000000    -1.750000000
O     4.025000000    -3.528000000    -3.192000000
H     4.228000000    -4.463000000    -3.184000000
H     3.109000000    -3.483000000    -3.467000000
O     0.538000000    -1.647000000    -7.390000000
H    -0.278000000    -1.800000000    -6.914000000
H     1.178000000    -1.442000000    -6.708000000
O     6.141000000    -2.229000000    -5.719000000
H     5.492000000    -1.975000000    -5.063000000
H     6.984000000    -2.024000000    -5.314000000
O     4.676000000     2.070000000    -3.354000000
H     4.190000000     1.299000000    -3.644000000
H     4.260000000     2.801000000    -3.810000000
O     4.250000000    -0.990000000    -3.878000000
H     4.323000000    -1.852000000    -3.467000000
H     3.385000000    -0.992000000    -4.287000000
O     1.751000000    -0.561000000    -9.288000000
H     2.638000000    -0.918000000    -9.244000000
H     1.338000000    -0.845000000    -8.472000000
O     3.135000000    -1.057000000    -0.218000000
H     2.255000000    -0.682000000    -0.254000000
H     3.015000000    -1.910000000     0.200000000
O     6.189000000    -2.460000000    -1.784000000
H     5.812000000    -1.589000000    -1.904000000
H     5.531000000    -3.057000000    -2.141000000
O     6.863000000    -4.870000000    -4.647000000
H     6.185000000    -5.038000000    -3.994000000
H     6.560000000    -4.091000000    -5.113000000
