215
-1435.20778
C     4.412000000     1.704000000     2.480000000
H     4.352000000     0.647000000     2.726000000
C     3.435000000     2.638000000     2.759000000
C     3.585000000     3.948000000     2.433000000
H     2.773000000     4.667000000     2.518000000
C     2.096000000     2.124000000     3.268000000
O     2.270000000     1.013000000     4.337000000
H     1.520000000     1.731000000     2.417000000
O     1.406000000     3.215000000     3.858000000
C     0.095000000     3.227000000     3.563000000
C    -0.317000000     3.984000000     2.410000000
H     0.367000000     4.596000000     1.827000000
C    -1.656000000     3.796000000     1.925000000
O    -2.038000000     4.235000000     0.704000000
C    -2.609000000     3.011000000     2.594000000
C    -4.055000000     2.903000000     2.230000000
H    -4.643000000     2.782000000     3.142000000
C    -4.390000000     1.829000000     1.239000000
C    -4.694000000     0.581000000     1.664000000
H    -4.762000000     0.428000000     2.738000000
H    -4.333000000     3.895000000     1.868000000
C    -2.184000000     2.299000000     3.720000000
H    -2.814000000     1.572000000     4.227000000
C    -0.889000000     2.423000000     4.169000000
C    -0.491000000     1.557000000     5.353000000
H    -1.302000000     1.435000000     6.073000000
H     0.281000000     2.101000000     5.903000000
C    -0.007000000     0.226000000     4.868000000
C    -0.919000000    -0.770000000     4.688000000
H    -1.902000000    -0.663000000     5.138000000
C     1.351000000     0.026000000     4.482000000
C     1.800000000    -1.253000000     4.142000000
H     2.858000000    -1.388000000     3.932000000
C     0.846000000    -2.277000000     3.920000000
O     1.245000000    -3.458000000     3.346000000
C     0.823000000    -3.580000000     1.979000000
C     1.981000000    -3.940000000     1.012000000
C     1.767000000    -4.673000000    -0.149000000
H     0.748000000    -4.965000000    -0.391000000
C     3.216000000    -3.448000000     1.267000000
H     3.355000000    -2.923000000     2.209000000
O    -0.359000000    -4.360000000     1.833000000
H     0.463000000    -2.592000000     1.654000000
C    -0.527000000    -1.995000000     4.216000000
C    -1.614000000    -3.107000000     4.215000000
H    -2.406000000    -2.831000000     4.915000000
H    -1.085000000    -3.978000000     4.608000000
C    -2.246000000    -3.243000000     2.845000000
C    -3.513000000    -2.679000000     2.639000000
H    -3.980000000    -2.076000000     3.414000000
C    -1.597000000    -3.851000000     1.706000000
C    -2.250000000    -3.960000000     0.496000000
H    -1.851000000    -4.519000000    -0.346000000
C    -3.497000000    -3.320000000     0.332000000
O    -4.103000000    -3.227000000    -0.835000000
C    -3.934000000    -2.149000000    -1.657000000
C    -3.395000000    -2.523000000    -3.061000000
C    -2.622000000    -3.650000000    -3.292000000
H    -2.679000000    -4.392000000    -2.499000000
C    -3.499000000    -1.572000000    -4.119000000
H    -4.149000000    -0.749000000    -3.833000000
O    -5.027000000    -1.227000000    -1.589000000
H    -3.070000000    -1.560000000    -1.316000000
C    -4.092000000    -2.623000000     1.411000000
C    -5.417000000    -1.827000000     1.276000000
H    -5.856000000    -1.783000000     2.274000000
H    -6.173000000    -2.282000000     0.633000000
C    -4.992000000    -0.427000000     0.747000000
C    -4.901000000    -0.193000000    -0.646000000
C    -4.440000000     0.992000000    -1.080000000
H    -4.263000000     1.122000000    -2.145000000
C    -4.137000000     2.014000000    -0.146000000
O    -3.540000000     3.143000000    -0.585000000
C    -2.124000000     3.317000000    -0.368000000
H    -1.642000000     2.372000000    -0.080000000
C    -1.365000000     3.778000000    -1.582000000
C    -0.072000000     4.324000000    -1.440000000
H     0.451000000     4.361000000    -0.488000000
C    -1.890000000     3.626000000    -2.873000000
H    -2.884000000     3.204000000    -3.001000000
C    -1.087000000     3.943000000    -3.967000000
O    -1.533000000     3.753000000    -5.267000000
C     0.229000000     4.335000000    -3.752000000
H     0.940000000     4.473000000    -4.562000000
C     0.708000000     4.588000000    -2.515000000
O     2.063000000     4.751000000    -2.378000000
C     2.672000000     5.677000000    -1.563000000
C     3.425000000     5.199000000    -0.564000000
H     3.582000000     4.134000000    -0.409000000
C     2.463000000     7.016000000    -1.741000000
H     1.974000000     7.445000000    -2.612000000
C     3.222000000     7.895000000    -0.952000000
H     3.017000000     8.958000000    -1.042000000
C     4.127000000     7.449000000    -0.021000000
H     4.649000000     8.148000000     0.627000000
C     4.199000000     6.086000000     0.314000000
O     4.892000000     5.686000000     1.400000000
C     4.789000000     4.401000000     1.831000000
C     5.760000000     3.477000000     1.545000000
H     6.707000000     3.676000000     1.049000000
C     5.565000000     2.139000000     1.882000000
O     6.534000000     1.222000000     1.526000000
C     6.639000000    -0.086000000     1.944000000
C     6.024000000    -1.046000000     1.171000000
H     5.486000000    -0.792000000     0.261000000
C     7.351000000    -0.427000000     3.117000000
H     7.724000000     0.378000000     3.744000000
C     7.377000000    -1.793000000     3.473000000
H     7.940000000    -2.100000000     4.351000000
C     6.758000000    -2.758000000     2.668000000
H     6.753000000    -3.826000000     2.872000000
C     6.065000000    -2.390000000     1.525000000
O     5.586000000    -3.364000000     0.717000000
C     4.314000000    -3.774000000     0.421000000
C     4.102000000    -4.568000000    -0.691000000
H     4.867000000    -4.941000000    -1.366000000
C     2.804000000    -5.091000000    -0.980000000
O     2.554000000    -5.936000000    -2.079000000
C     1.341000000    -6.307000000    -2.593000000
C     0.648000000    -5.390000000    -3.361000000
H     1.027000000    -4.397000000    -3.586000000
C     0.826000000    -7.560000000    -2.326000000
H     1.300000000    -8.316000000    -1.706000000
C    -0.379000000    -7.923000000    -2.882000000
H    -0.697000000    -8.937000000    -2.653000000
C    -1.067000000    -7.103000000    -3.704000000
H    -1.999000000    -7.429000000    -4.158000000
C    -0.596000000    -5.794000000    -3.909000000
O    -1.152000000    -4.934000000    -4.853000000
C    -1.948000000    -3.859000000    -4.523000000
C    -2.048000000    -2.890000000    -5.486000000
H    -1.625000000    -3.079000000    -6.470000000
C    -2.829000000    -1.699000000    -5.355000000
O    -2.834000000    -0.749000000    -6.362000000
C    -3.215000000     0.584000000    -6.177000000
C    -4.522000000     0.992000000    -6.491000000
H    -5.175000000     0.173000000    -6.784000000
C    -4.860000000     2.352000000    -6.330000000
H    -5.882000000     2.633000000    -6.572000000
C    -3.844000000     3.251000000    -5.927000000
H    -4.095000000     4.304000000    -5.823000000
C    -2.546000000     2.823000000    -5.570000000
C    -2.227000000     1.466000000    -5.679000000
H    -1.214000000     1.109000000    -5.510000000
C     0.711000000     0.839000000    -2.763000000
H     1.209000000     1.743000000    -3.103000000
C     0.292000000     0.786000000    -1.458000000
H     0.314000000     1.654000000    -0.805000000
C    -0.424000000    -0.323000000    -1.052000000
H    -0.964000000    -0.355000000    -0.031000000
C    -0.365000000    -1.509000000    -1.816000000
H    -0.817000000    -2.439000000    -1.482000000
C     0.256000000    -1.462000000    -3.077000000
H     0.284000000    -2.397000000    -3.630000000
C     0.910000000    -0.292000000    -3.520000000
C     1.569000000    -0.260000000    -4.897000000
O     1.479000000    -1.248000000    -5.605000000
O     2.267000000     0.661000000    -5.164000000
O     4.833000000     4.755000000    -5.043000000
H     4.769000000     4.521000000    -5.969000000
H     4.333000000     4.077000000    -4.590000000
O     1.472000000    -2.222000000    -9.293000000
H     1.761000000    -1.324000000    -9.129000000
H     1.796000000    -2.719000000    -8.542000000
O     0.336000000     4.552000000    -7.551000000
H    -0.572000000     4.278000000    -7.680000000
H     0.847000000     3.750000000    -7.661000000
O     1.686000000     2.045000000    -7.668000000
H     1.605000000     1.714000000    -6.774000000
H     2.130000000     1.343000000    -8.144000000
O    -1.543000000    -2.602000000    -9.427000000
H    -1.393000000    -1.898000000   -10.058000000
H    -0.811000000    -2.535000000    -8.814000000
O     3.162000000    -2.844000000    -6.885000000
H     3.323000000    -3.589000000    -6.306000000
H     2.578000000    -2.274000000    -6.386000000
O     5.152000000     0.013000000   -10.110000000
H     4.522000000    -0.027000000    -9.390000000
H     5.957000000     0.337000000    -9.706000000
O     5.615000000     1.548000000    -1.962000000
H     4.863000000     1.123000000    -1.550000000
H     5.246000000     2.311000000    -2.407000000
O     4.747000000    -1.971000000    -4.645000000
H     4.515000000    -2.886000000    -4.486000000
H     4.157000000    -1.693000000    -5.346000000
O    -0.377000000    -0.600000000    -7.540000000
H     0.179000000    -0.816000000    -6.792000000
H    -1.260000000    -0.845000000    -7.260000000
O    -3.135000000     1.138000000    -9.807000000
H    -2.274000000     0.813000000    -9.543000000
H    -3.045000000     2.091000000    -9.792000000
O     6.930000000     0.246000000    -7.711000000
H     7.164000000     0.757000000    -6.935000000
H     6.020000000    -0.012000000    -7.562000000
O     3.448000000     2.612000000    -3.701000000
H     3.236000000     1.697000000    -3.884000000
H     2.637000000     2.980000000    -3.349000000
O     3.980000000    -0.032000000    -7.274000000
H     3.778000000    -0.968000000    -7.275000000
H     3.450000000     0.326000000    -6.562000000
O    -0.160000000     1.344000000   -10.610000000
H    -0.061000000     1.825000000    -9.788000000
H     0.580000000     1.631000000   -11.145000000
O     3.009000000     0.778000000    -0.744000000
H     2.117000000     0.473000000    -0.913000000
H     3.009000000     1.015000000     0.184000000
O     4.228000000     3.640000000    -7.573000000
H     3.830000000     3.772000000    -8.433000000
H     3.590000000     3.112000000    -7.093000000
O     6.478000000    -0.883000000    -2.883000000
H     6.222000000    -0.025000000    -2.544000000
H     5.726000000    -1.170000000    -3.401000000
O     3.897000000    -4.474000000    -4.867000000
H     3.221000000    -5.147000000    -4.785000000
H     4.722000000    -4.954000000    -4.797000000
