215
-1435.79794
C     4.381000000     2.327000000     2.160000000
H     4.280000000     1.771000000     3.089000000
C     3.252000000     3.120000000     1.776000000
C     3.355000000     3.682000000     0.541000000
H     2.551000000     4.358000000     0.262000000
C     1.905000000     3.088000000     2.536000000
O     1.948000000     2.850000000     3.910000000
H     1.444000000     2.203000000     2.074000000
O     1.187000000     4.319000000     2.253000000
C    -0.133000000     4.118000000     1.914000000
C    -0.548000000     4.360000000     0.579000000
H     0.186000000     4.780000000    -0.104000000
C    -1.855000000     4.154000000     0.195000000
O    -2.158000000     4.291000000    -1.181000000
C    -2.834000000     3.822000000     1.118000000
C    -4.265000000     3.562000000     0.591000000
H    -5.008000000     3.680000000     1.383000000
C    -4.441000000     2.158000000    -0.016000000
C    -4.872000000     1.156000000     0.861000000
H    -5.151000000     1.451000000     1.869000000
H    -4.489000000     4.284000000    -0.197000000
C    -2.493000000     3.635000000     2.441000000
H    -3.283000000     3.369000000     3.139000000
C    -1.129000000     3.815000000     2.821000000
C    -0.867000000     3.568000000     4.335000000
H    -1.809000000     3.710000000     4.869000000
H    -0.032000000     4.173000000     4.696000000
C    -0.349000000     2.129000000     4.408000000
C    -1.230000000     1.165000000     4.776000000
H    -2.271000000     1.392000000     4.993000000
C     1.012000000     1.886000000     4.293000000
C     1.476000000     0.477000000     4.375000000
H     2.471000000     0.261000000     3.996000000
C     0.499000000    -0.514000000     4.646000000
O     0.922000000    -1.810000000     4.487000000
C     0.602000000    -2.659000000     3.339000000
C     1.758000000    -3.463000000     2.791000000
C     1.488000000    -4.506000000     1.965000000
H     0.502000000    -4.944000000     1.830000000
C     3.009000000    -2.874000000     2.821000000
H     3.243000000    -1.989000000     3.407000000
O    -0.492000000    -3.499000000     3.718000000
H     0.225000000    -1.983000000     2.557000000
C    -0.831000000    -0.183000000     4.879000000
C    -1.927000000    -1.201000000     5.190000000
H    -2.740000000    -0.716000000     5.734000000
H    -1.520000000    -1.897000000     5.927000000
C    -2.392000000    -1.853000000     3.853000000
C    -3.555000000    -1.341000000     3.259000000
H    -4.090000000    -0.522000000     3.733000000
C    -1.709000000    -2.981000000     3.244000000
C    -2.117000000    -3.399000000     2.023000000
H    -1.547000000    -4.154000000     1.488000000
C    -3.248000000    -2.776000000     1.416000000
O    -3.579000000    -3.273000000     0.192000000
C    -3.295000000    -2.414000000    -0.950000000
C    -2.664000000    -3.231000000    -2.134000000
C    -2.298000000    -4.541000000    -1.935000000
H    -2.419000000    -5.072000000    -0.994000000
C    -2.416000000    -2.680000000    -3.421000000
H    -2.737000000    -1.651000000    -3.560000000
O    -4.496000000    -1.769000000    -1.350000000
H    -2.576000000    -1.664000000    -0.589000000
C    -4.024000000    -1.849000000     2.039000000
C    -5.287000000    -1.357000000     1.343000000
H    -5.996000000    -1.120000000     2.139000000
H    -5.633000000    -2.136000000     0.660000000
C    -5.005000000    -0.206000000     0.426000000
C    -4.732000000    -0.470000000    -0.909000000
C    -4.332000000     0.541000000    -1.818000000
H    -4.023000000     0.392000000    -2.850000000
C    -4.170000000     1.853000000    -1.341000000
O    -3.611000000     2.662000000    -2.228000000
C    -2.217000000     3.099000000    -1.995000000
H    -1.786000000     2.251000000    -1.442000000
C    -1.451000000     3.265000000    -3.338000000
C    -0.360000000     4.098000000    -3.410000000
H    -0.197000000     4.806000000    -2.601000000
C    -1.603000000     2.321000000    -4.411000000
H    -2.409000000     1.594000000    -4.359000000
C    -0.890000000     2.523000000    -5.637000000
O    -1.132000000     1.819000000    -6.764000000
C     0.099000000     3.537000000    -5.679000000
H     0.673000000     3.631000000    -6.597000000
C     0.429000000     4.288000000    -4.530000000
O     1.377000000     5.261000000    -4.637000000
C     2.270000000     5.653000000    -3.649000000
C     3.084000000     4.791000000    -2.988000000
H     3.052000000     3.783000000    -3.393000000
C     2.154000000     6.956000000    -3.167000000
H     1.470000000     7.692000000    -3.583000000
C     2.920000000     7.364000000    -2.047000000
H     2.827000000     8.380000000    -1.674000000
C     3.706000000     6.428000000    -1.319000000
H     4.343000000     6.720000000    -0.488000000
C     3.812000000     5.167000000    -1.805000000
O     4.719000000     4.306000000    -1.394000000
C     4.532000000     3.620000000    -0.211000000
C     5.611000000     2.937000000     0.270000000
H     6.556000000     2.873000000    -0.263000000
C     5.586000000     2.200000000     1.451000000
O     6.631000000     1.588000000     1.942000000
C     6.573000000     0.376000000     2.684000000
C     5.909000000    -0.728000000     2.163000000
H     5.406000000    -0.599000000     1.207000000
C     7.268000000     0.232000000     3.878000000
H     7.691000000     1.157000000     4.263000000
C     7.191000000    -0.964000000     4.577000000
H     7.694000000    -0.970000000     5.540000000
C     6.594000000    -2.080000000     4.046000000
H     6.523000000    -3.032000000     4.566000000
C     5.897000000    -1.935000000     2.833000000
O     5.360000000    -3.027000000     2.201000000
C     4.057000000    -3.471000000     2.150000000
C     3.774000000    -4.566000000     1.315000000
H     4.621000000    -4.996000000     0.786000000
C     2.485000000    -5.057000000     1.263000000
O     2.371000000    -6.131000000     0.424000000
C     1.141000000    -6.659000000     0.042000000
C     0.593000000    -6.392000000    -1.184000000
H     1.017000000    -5.723000000    -1.929000000
C     0.592000000    -7.617000000     0.853000000
H     1.016000000    -7.867000000     1.822000000
C    -0.525000000    -8.331000000     0.387000000
H    -1.025000000    -9.140000000     0.914000000
C    -1.157000000    -7.997000000    -0.792000000
H    -2.053000000    -8.517000000    -1.124000000
C    -0.617000000    -6.971000000    -1.533000000
O    -1.304000000    -6.577000000    -2.657000000
C    -1.562000000    -5.263000000    -2.899000000
C    -1.330000000    -4.615000000    -4.113000000
H    -0.817000000    -5.183000000    -4.884000000
C    -1.644000000    -3.316000000    -4.357000000
O    -1.303000000    -2.790000000    -5.611000000
C    -1.964000000    -1.745000000    -6.182000000
C    -3.250000000    -1.788000000    -6.636000000
H    -3.816000000    -2.707000000    -6.767000000
C    -3.726000000    -0.643000000    -7.391000000
H    -4.706000000    -0.674000000    -7.861000000
C    -3.014000000     0.544000000    -7.395000000
H    -3.436000000     1.378000000    -7.951000000
C    -1.805000000     0.622000000    -6.790000000
C    -1.287000000    -0.509000000    -6.193000000
H    -0.309000000    -0.540000000    -5.719000000
C     0.892000000     0.373000000    -1.996000000
H     1.379000000     1.224000000    -2.465000000
C     0.350000000     0.466000000    -0.748000000
H     0.173000000     1.491000000    -0.431000000
C     0.072000000    -0.676000000    -0.008000000
H    -0.436000000    -0.420000000     0.957000000
C     0.163000000    -1.918000000    -0.494000000
H    -0.228000000    -2.795000000     0.015000000
C     0.586000000    -2.017000000    -1.832000000
H     0.770000000    -3.021000000    -2.205000000
C     1.033000000    -0.888000000    -2.571000000
C     1.953000000    -1.070000000    -3.784000000
O     2.625000000    -2.097000000    -3.927000000
O     2.034000000    -0.188000000    -4.607000000
O     3.756000000     0.152000000    -9.535000000
H     3.407000000     0.578000000    -8.752000000
H     3.042000000     0.197000000   -10.171000000
O     6.838000000     1.880000000    -7.130000000
H     6.059000000     1.395000000    -7.405000000
H     6.739000000     2.742000000    -7.535000000
O     2.390000000     0.358000000    -7.083000000
H     2.264000000     0.437000000    -6.137000000
H     1.923000000    -0.443000000    -7.321000000
O     2.949000000     2.958000000    -7.568000000
H     2.658000000     2.054000000    -7.450000000
H     3.859000000     2.957000000    -7.271000000
O     3.013000000    -4.888000000    -4.335000000
H     2.897000000    -4.017000000    -3.955000000
H     2.612000000    -4.827000000    -5.202000000
O     6.056000000    -4.431000000    -6.095000000
H     5.656000000    -3.625000000    -5.769000000
H     6.618000000    -4.145000000    -6.816000000
O     6.332000000     2.840000000    -3.470000000
H     5.901000000     3.269000000    -2.731000000
H     5.624000000     2.390000000    -3.931000000
O     5.798000000    -1.855000000    -0.906000000
H     5.579000000    -2.761000000    -1.125000000
H     4.958000000    -1.396000000    -0.913000000
O     2.711000000    -2.681000000    -7.189000000
H     1.807000000    -2.848000000    -7.456000000
H     2.647000000    -2.438000000    -6.266000000
O    -0.716000000    -3.013000000    -8.386000000
H    -0.909000000    -2.711000000    -7.499000000
H    -0.646000000    -3.964000000    -8.306000000
O     6.671000000     0.076000000    -5.130000000
H     6.719000000     0.855000000    -5.685000000
H     7.496000000    -0.382000000    -5.288000000
O     4.207000000     1.405000000    -4.181000000
H     3.369000000     1.010000000    -3.943000000
H     4.768000000     0.661000000    -4.402000000
O     5.174000000    -2.124000000    -4.649000000
H     5.657000000    -1.312000000    -4.803000000
H     4.306000000    -1.837000000    -4.367000000
O     4.049000000    -2.582000000    -9.880000000
H     4.200000000    -1.637000000    -9.891000000
H     3.899000000    -2.789000000    -8.957000000
O     3.382000000    -0.583000000    -0.527000000
H     2.914000000    -1.389000000    -0.311000000
H     2.699000000     0.085000000    -0.576000000
O    -0.882000000    -0.603000000   -10.013000000
H    -1.681000000    -0.782000000   -10.510000000
H    -0.759000000    -1.380000000    -9.468000000
O     7.373000000     0.580000000    -1.382000000
H     6.718000000     0.948000000    -1.975000000
H     6.977000000    -0.231000000    -1.062000000
O     5.190000000    -3.963000000    -2.601000000
H     5.155000000    -3.246000000    -3.234000000
H     4.475000000    -4.545000000    -2.858000000
O     3.042000000    -7.201000000    -2.880000000
H     3.157000000    -6.430000000    -3.435000000
H     2.343000000    -7.699000000    -3.304000000
