215
-1461.98795
C     4.449000000     1.438000000     2.401000000
H     4.213000000     0.443000000     2.769000000
C     3.551000000     2.470000000     2.665000000
C     3.825000000     3.734000000     2.189000000
H     3.245000000     4.577000000     2.556000000
C     2.251000000     2.056000000     3.254000000
O     2.488000000     1.017000000     4.308000000
H     1.611000000     1.606000000     2.480000000
O     1.537000000     3.193000000     3.869000000
C     0.220000000     3.345000000     3.585000000
C    -0.051000000     4.023000000     2.463000000
H     0.765000000     4.490000000     1.917000000
C    -1.404000000     4.205000000     2.109000000
O    -1.686000000     4.650000000     0.854000000
C    -2.409000000     3.551000000     2.840000000
C    -3.845000000     3.346000000     2.249000000
H    -4.475000000     3.128000000     3.114000000
C    -4.085000000     2.223000000     1.296000000
C    -4.484000000     0.994000000     1.709000000
H    -4.770000000     0.812000000     2.742000000
H    -4.249000000     4.251000000     1.791000000
C    -2.063000000     2.774000000     3.969000000
H    -2.717000000     2.120000000     4.540000000
C    -0.723000000     2.669000000     4.345000000
C    -0.324000000     1.643000000     5.363000000
H    -1.073000000     1.426000000     6.127000000
H     0.467000000     2.096000000     5.964000000
C     0.116000000     0.278000000     4.882000000
C    -0.775000000    -0.844000000     4.868000000
H    -1.769000000    -0.639000000     5.256000000
C     1.426000000    -0.015000000     4.412000000
C     1.823000000    -1.263000000     3.849000000
H     2.799000000    -1.362000000     3.380000000
C     0.878000000    -2.321000000     3.851000000
O     1.123000000    -3.540000000     3.259000000
C     0.638000000    -3.661000000     1.885000000
C     1.664000000    -4.259000000     1.019000000
C     1.251000000    -5.025000000    -0.073000000
H     0.211000000    -5.320000000    -0.188000000
C     3.031000000    -3.944000000     1.202000000
H     3.343000000    -3.357000000     2.062000000
O    -0.506000000    -4.554000000     1.950000000
H     0.358000000    -2.696000000     1.437000000
C    -0.462000000    -2.098000000     4.295000000
C    -1.506000000    -3.216000000     4.298000000
H    -2.240000000    -3.082000000     5.096000000
H    -1.080000000    -4.220000000     4.332000000
C    -2.279000000    -3.259000000     2.953000000
C    -3.412000000    -2.535000000     2.775000000
H    -3.845000000    -2.097000000     3.671000000
C    -1.839000000    -4.017000000     1.853000000
C    -2.509000000    -3.935000000     0.602000000
H    -1.978000000    -4.321000000    -0.264000000
C    -3.682000000    -3.169000000     0.430000000
O    -4.134000000    -2.976000000    -0.851000000
C    -3.713000000    -1.788000000    -1.663000000
C    -3.399000000    -2.218000000    -3.062000000
C    -2.883000000    -3.467000000    -3.329000000
H    -2.952000000    -4.235000000    -2.563000000
C    -3.259000000    -1.226000000    -4.035000000
H    -3.621000000    -0.210000000    -3.904000000
O    -4.735000000    -0.710000000    -1.565000000
H    -2.760000000    -1.453000000    -1.229000000
C    -4.098000000    -2.426000000     1.529000000
C    -5.240000000    -1.359000000     1.336000000
H    -5.789000000    -1.302000000     2.277000000
H    -6.071000000    -1.652000000     0.692000000
C    -4.669000000    -0.044000000     0.806000000
C    -4.445000000     0.138000000    -0.562000000
C    -4.063000000     1.439000000    -1.001000000
H    -3.880000000     1.683000000    -2.044000000
C    -3.919000000     2.441000000    -0.084000000
O    -3.366000000     3.615000000    -0.502000000
C    -1.968000000     3.749000000    -0.201000000
H    -1.643000000     2.767000000     0.175000000
C    -1.121000000     4.022000000    -1.468000000
C     0.105000000     4.650000000    -1.399000000
H     0.459000000     4.910000000    -0.405000000
C    -1.597000000     3.609000000    -2.750000000
H    -2.591000000     3.180000000    -2.847000000
C    -0.812000000     3.941000000    -3.884000000
O    -1.237000000     3.728000000    -5.164000000
C     0.409000000     4.540000000    -3.765000000
H     0.960000000     4.848000000    -4.649000000
C     0.924000000     4.837000000    -2.507000000
O     2.201000000     5.353000000    -2.541000000
C     2.774000000     5.993000000    -1.520000000
C     3.640000000     5.245000000    -0.743000000
H     3.782000000     4.195000000    -0.990000000
C     2.786000000     7.375000000    -1.463000000
H     2.197000000     7.926000000    -2.192000000
C     3.537000000     8.070000000    -0.526000000
H     3.478000000     9.149000000    -0.411000000
C     4.394000000     7.295000000     0.290000000
H     4.992000000     7.842000000     1.014000000
C     4.401000000     5.886000000     0.257000000
O     5.276000000     5.178000000     1.090000000
C     5.039000000     3.942000000     1.550000000
C     5.868000000     2.868000000     1.173000000
H     6.690000000     2.941000000     0.466000000
C     5.592000000     1.614000000     1.611000000
O     6.420000000     0.617000000     1.252000000
C     6.263000000    -0.695000000     1.682000000
C     5.903000000    -1.680000000     0.730000000
H     5.607000000    -1.363000000    -0.267000000
C     6.700000000    -1.048000000     2.976000000
H     7.041000000    -0.270000000     3.654000000
C     6.718000000    -2.329000000     3.383000000
H     6.984000000    -2.598000000     4.402000000
C     6.217000000    -3.295000000     2.424000000
H     6.247000000    -4.338000000     2.731000000
C     5.826000000    -2.996000000     1.138000000
O     5.341000000    -3.970000000     0.304000000
C     4.002000000    -4.314000000     0.221000000
C     3.554000000    -5.031000000    -0.871000000
H     4.291000000    -5.314000000    -1.618000000
C     2.237000000    -5.437000000    -0.956000000
O     1.869000000    -6.240000000    -2.069000000
C     0.635000000    -6.507000000    -2.573000000
C    -0.102000000    -5.536000000    -3.275000000
H     0.364000000    -4.562000000    -3.398000000
C     0.142000000    -7.825000000    -2.523000000
H     0.512000000    -8.668000000    -1.945000000
C    -1.055000000    -8.130000000    -3.155000000
H    -1.424000000    -9.152000000    -3.127000000
C    -1.707000000    -7.184000000    -3.959000000
H    -2.579000000    -7.485000000    -4.534000000
C    -1.213000000    -5.890000000    -4.016000000
O    -1.841000000    -5.037000000    -4.862000000
C    -2.187000000    -3.754000000    -4.453000000
C    -2.046000000    -2.803000000    -5.462000000
H    -1.545000000    -3.013000000    -6.403000000
C    -2.561000000    -1.545000000    -5.227000000
O    -2.341000000    -0.637000000    -6.225000000
C    -2.864000000     0.577000000    -6.095000000
C    -4.141000000     1.043000000    -6.286000000
H    -4.857000000     0.373000000    -6.757000000
C    -4.536000000     2.354000000    -6.044000000
H    -5.562000000     2.618000000    -6.290000000
C    -3.649000000     3.273000000    -5.535000000
H    -3.939000000     4.303000000    -5.344000000
C    -2.302000000     2.888000000    -5.395000000
C    -1.968000000     1.581000000    -5.754000000
H    -0.966000000     1.253000000    -5.491000000
C     0.644000000     0.849000000    -2.140000000
H     1.108000000     1.759000000    -2.512000000
C     0.317000000     0.768000000    -0.814000000
H     0.567000000     1.589000000    -0.146000000
C    -0.169000000    -0.463000000    -0.318000000
H    -0.464000000    -0.522000000     0.776000000
C    -0.310000000    -1.511000000    -1.197000000
H    -0.818000000    -2.413000000    -0.867000000
C    -0.003000000    -1.433000000    -2.513000000
H    -0.107000000    -2.395000000    -3.007000000
C     0.560000000    -0.212000000    -3.014000000
C     1.077000000    -0.153000000    -4.461000000
O     0.753000000    -1.068000000    -5.147000000
O     1.900000000     0.651000000    -4.873000000
O     5.430000000     2.570000000    -5.283000000
H     5.013000000     2.750000000    -6.126000000
H     4.703000000     2.372000000    -4.693000000
O     2.648000000    -0.608000000    -9.451000000
H     1.854000000    -0.374000000    -8.971000000
H     2.825000000    -1.514000000    -9.196000000
O     1.946000000     2.441000000    -7.150000000
H     1.950000000     1.881000000    -6.374000000
H     1.502000000     1.921000000    -7.820000000
O     1.941000000    -3.224000000    -5.785000000
H     1.270000000    -3.905000000    -5.735000000
H     1.472000000    -2.411000000    -5.601000000
O     4.505000000     1.067000000    -9.842000000
H     3.712000000     0.542000000    -9.743000000
H     5.079000000     0.772000000    -9.135000000
O     2.997000000    -3.490000000    -8.541000000
H     2.364000000    -4.021000000    -9.024000000
H     2.763000000    -3.616000000    -7.621000000
O     4.937000000     0.684000000    -2.145000000
H     4.301000000     0.024000000    -2.420000000
H     4.404000000     1.437000000    -1.886000000
O     6.675000000     0.389000000    -4.847000000
H     6.017000000     0.068000000    -4.231000000
H     6.371000000     1.264000000    -5.088000000
O     3.763000000    -4.193000000    -4.052000000
H     3.239000000    -3.832000000    -4.768000000
H     3.554000000    -5.127000000    -4.049000000
O     0.502000000    -0.210000000    -7.809000000
H     0.504000000    -0.589000000    -6.931000000
H    -0.371000000    -0.401000000    -8.151000000
O    -2.905000000    -1.983000000    -8.943000000
H    -2.543000000    -1.279000000    -9.481000000
H    -2.200000000    -2.209000000    -8.337000000
O     6.113000000     0.177000000    -7.403000000
H     6.520000000     0.365000000    -6.558000000
H     5.217000000    -0.079000000    -7.187000000
O    -1.517000000     0.452000000    -9.695000000
H    -2.076000000     1.134000000    -9.321000000
H    -0.936000000     0.921000000   -10.293000000
O     3.319000000     2.837000000    -3.730000000
H     2.735000000     2.223000000    -4.177000000
H     2.943000000     3.699000000    -3.909000000
O     3.831000000    -0.630000000    -6.246000000
H     3.246000000    -1.355000000    -6.467000000
H     3.252000000     0.045000000    -5.890000000
O     0.259000000     3.574000000    -9.255000000
H     0.420000000     2.936000000    -9.950000000
H     1.071000000     3.588000000    -8.749000000
O     3.523000000    -1.867000000    -2.346000000
H     2.966000000    -2.270000000    -1.680000000
H     3.535000000    -2.500000000    -3.064000000
O     4.409000000     3.803000000    -7.527000000
H     4.472000000     4.044000000    -8.451000000
H     3.613000000     3.274000000    -7.471000000
O     6.182000000    -3.637000000    -2.644000000
H     5.748000000    -2.986000000    -2.092000000
H     5.485000000    -3.982000000    -3.201000000
