215
-1421.94409
C     4.112000000     3.462000000     1.903000000
H     3.708000000     3.136000000     2.858000000
C     3.205000000     3.900000000     0.896000000
C     3.706000000     4.219000000    -0.360000000
H     3.001000000     4.560000000    -1.114000000
C     1.667000000     3.923000000     0.985000000
O     1.213000000     4.424000000     2.262000000
H     1.246000000     2.925000000     0.793000000
O     1.006000000     4.957000000     0.128000000
C    -0.286000000     4.595000000    -0.331000000
C    -0.384000000     4.270000000    -1.676000000
H     0.558000000     4.086000000    -2.186000000
C    -1.654000000     3.873000000    -2.235000000
O    -1.591000000     3.166000000    -3.472000000
C    -2.839000000     3.909000000    -1.431000000
C    -4.168000000     3.383000000    -1.965000000
H    -4.974000000     3.986000000    -1.540000000
C    -4.251000000     1.861000000    -1.684000000
C    -4.796000000     1.386000000    -0.499000000
H    -5.050000000     2.103000000     0.277000000
H    -4.121000000     3.562000000    -3.041000000
C    -2.691000000     4.236000000    -0.074000000
H    -3.555000000     4.223000000     0.586000000
C    -1.401000000     4.582000000     0.470000000
C    -1.427000000     5.061000000     1.930000000
H    -2.440000000     5.415000000     2.131000000
H    -0.758000000     5.918000000     2.030000000
C    -1.005000000     3.927000000     2.898000000
C    -1.943000000     3.191000000     3.585000000
H    -3.001000000     3.376000000     3.417000000
C     0.324000000     3.676000000     3.027000000
C     0.796000000     2.573000000     3.755000000
H     1.844000000     2.287000000     3.780000000
C    -0.188000000     1.739000000     4.293000000
O     0.298000000     0.530000000     4.661000000
C     0.082000000    -0.618000000     3.817000000
C     1.312000000    -1.560000000     3.794000000
C     1.221000000    -2.762000000     3.063000000
H     0.326000000    -2.971000000     2.482000000
C     2.565000000    -1.139000000     4.111000000
H     2.656000000    -0.147000000     4.547000000
O    -1.109000000    -1.353000000     4.323000000
H     0.017000000    -0.296000000     2.767000000
C    -1.564000000     2.049000000     4.226000000
C    -2.617000000     1.174000000     4.802000000
H    -3.471000000     1.767000000     5.138000000
H    -2.089000000     0.783000000     5.674000000
C    -3.081000000     0.005000000     3.867000000
C    -4.100000000     0.240000000     2.926000000
H    -4.533000000     1.230000000     2.807000000
C    -2.355000000    -1.217000000     3.718000000
C    -2.679000000    -2.151000000     2.765000000
H    -2.134000000    -3.089000000     2.705000000
C    -3.742000000    -1.991000000     1.888000000
O    -4.090000000    -2.978000000     0.982000000
C    -3.545000000    -2.866000000    -0.359000000
C    -3.119000000    -4.250000000    -0.924000000
C    -2.625000000    -5.252000000    -0.067000000
H    -2.552000000    -5.022000000     0.993000000
C    -3.144000000    -4.536000000    -2.255000000
H    -3.567000000    -3.825000000    -2.961000000
O    -4.614000000    -2.324000000    -1.177000000
H    -2.775000000    -2.084000000    -0.431000000
C    -4.400000000    -0.729000000     1.904000000
C    -5.509000000    -0.537000000     0.933000000
H    -6.224000000     0.139000000     1.407000000
H    -6.101000000    -1.452000000     0.864000000
C    -4.926000000    -0.002000000    -0.314000000
C    -4.602000000    -0.890000000    -1.408000000
C    -4.043000000    -0.367000000    -2.563000000
H    -3.648000000    -1.066000000    -3.296000000
C    -3.782000000     0.956000000    -2.673000000
O    -2.984000000     1.370000000    -3.693000000
C    -1.623000000     1.728000000    -3.331000000
H    -1.512000000     1.533000000    -2.254000000
C    -0.454000000     1.028000000    -4.003000000
C     0.777000000     1.684000000    -4.171000000
H     0.925000000     2.655000000    -3.707000000
C    -0.525000000    -0.281000000    -4.546000000
H    -1.428000000    -0.871000000    -4.408000000
C     0.515000000    -0.829000000    -5.221000000
O     0.446000000    -2.103000000    -5.802000000
C     1.693000000    -0.083000000    -5.402000000
H     2.526000000    -0.547000000    -5.923000000
C     1.843000000     1.164000000    -4.901000000
O     3.068000000     1.772000000    -5.045000000
C     3.374000000     3.010000000    -4.588000000
C     4.217000000     3.061000000    -3.509000000
H     4.602000000     2.179000000    -3.005000000
C     2.842000000     4.167000000    -5.196000000
H     2.023000000     4.078000000    -5.905000000
C     3.197000000     5.457000000    -4.664000000
H     2.637000000     6.316000000    -5.024000000
C     4.210000000     5.531000000    -3.694000000
H     4.641000000     6.475000000    -3.370000000
C     4.613000000     4.304000000    -3.110000000
O     5.467000000     4.415000000    -2.014000000
C     5.006000000     4.059000000    -0.747000000
C     5.895000000     3.605000000     0.223000000
H     6.957000000     3.595000000    -0.005000000
C     5.444000000     3.240000000     1.471000000
O     6.371000000     2.654000000     2.321000000
C     6.038000000     1.897000000     3.416000000
C     5.523000000     0.572000000     3.268000000
H     5.412000000     0.205000000     2.251000000
C     6.210000000     2.376000000     4.725000000
H     6.459000000     3.432000000     4.789000000
C     5.756000000     1.688000000     5.878000000
H     5.731000000     2.061000000     6.898000000
C     5.366000000     0.280000000     5.676000000
H     5.005000000    -0.214000000     6.574000000
C     5.392000000    -0.299000000     4.372000000
O     4.948000000    -1.569000000     4.278000000
C     3.667000000    -1.953000000     3.915000000
C     3.589000000    -3.165000000     3.253000000
H     4.499000000    -3.740000000     3.101000000
C     2.325000000    -3.654000000     2.877000000
O     2.188000000    -4.723000000     2.075000000
C     1.207000000    -5.617000000     2.215000000
C     0.251000000    -5.872000000     1.215000000
H     0.425000000    -5.359000000     0.272000000
C     1.287000000    -6.499000000     3.354000000
H     1.929000000    -6.319000000     4.212000000
C     0.491000000    -7.664000000     3.420000000
H     0.497000000    -8.340000000     4.272000000
C    -0.464000000    -7.869000000     2.401000000
H    -0.991000000    -8.818000000     2.355000000
C    -0.607000000    -7.011000000     1.318000000
O    -1.496000000    -7.334000000     0.284000000
C    -2.034000000    -6.418000000    -0.523000000
C    -2.049000000    -6.654000000    -1.943000000
H    -1.701000000    -7.579000000    -2.396000000
C    -2.528000000    -5.657000000    -2.765000000
O    -2.296000000    -5.751000000    -4.147000000
C    -2.050000000    -4.678000000    -4.962000000
C    -3.071000000    -4.405000000    -5.923000000
H    -3.953000000    -5.030000000    -6.040000000
C    -2.843000000    -3.349000000    -6.853000000
H    -3.584000000    -3.280000000    -7.644000000
C    -1.689000000    -2.652000000    -6.801000000
H    -1.550000000    -1.918000000    -7.591000000
C    -0.714000000    -2.916000000    -5.863000000
C    -0.928000000    -3.870000000    -4.885000000
H    -0.066000000    -4.005000000    -4.236000000
C     1.961000000    -0.193000000    -1.644000000
H     2.787000000    -0.018000000    -2.328000000
C     1.314000000     0.803000000    -0.926000000
H     1.573000000     1.847000000    -1.079000000
C     0.156000000     0.549000000    -0.215000000
H    -0.454000000     1.423000000     0.079000000
C    -0.269000000    -0.711000000     0.061000000
H    -1.117000000    -0.936000000     0.704000000
C     0.464000000    -1.786000000    -0.470000000
H     0.173000000    -2.807000000    -0.237000000
C     1.510000000    -1.560000000    -1.448000000
C     2.435000000    -2.718000000    -1.954000000
O     2.552000000    -3.776000000    -1.338000000
O     3.111000000    -2.600000000    -2.912000000
O     3.473000000    -6.525000000    -5.137000000
H     3.725000000    -5.704000000    -4.716000000
H     2.654000000    -6.773000000    -4.707000000
O     4.912000000    -1.168000000    -5.341000000
H     4.895000000    -1.216000000    -4.385000000
H     4.261000000    -1.810000000    -5.625000000
O     4.545000000    -3.361000000     0.410000000
H     4.089000000    -3.661000000     1.197000000
H     3.914000000    -3.493000000    -0.297000000
O     5.833000000     0.681000000    -6.941000000
H     5.782000000     0.202000000    -7.768000000
H     5.468000000     0.079000000    -6.293000000
O     3.065000000    -3.515000000    -5.696000000
H     3.145000000    -3.392000000    -4.750000000
H     2.237000000    -3.982000000    -5.807000000
O     7.204000000    -3.203000000    -3.855000000
H     7.881000000    -3.719000000    -3.417000000
H     6.407000000    -3.725000000    -3.760000000
O     2.949000000    -6.447000000    -0.759000000
H     2.367000000    -6.859000000    -1.398000000
H     2.764000000    -5.511000000    -0.837000000
O     7.422000000     0.304000000    -2.130000000
H     6.601000000    -0.186000000    -2.174000000
H     7.444000000     0.808000000    -2.944000000
O     2.255000000    -5.946000000    -7.375000000
H     2.052000000    -6.809000000    -7.736000000
H     2.925000000    -6.115000000    -6.712000000
O     8.281000000    -5.174000000    -2.301000000
H     8.178000000    -6.091000000    -2.048000000
H     8.495000000    -4.723000000    -1.484000000
O     7.615000000    -6.088000000     1.183000000
H     8.368000000    -5.643000000     0.795000000
H     6.885000000    -5.873000000     0.602000000
O     4.705000000    -3.853000000    -7.973000000
H     4.169000000    -4.068000000    -7.209000000
H     4.162000000    -3.253000000    -8.485000000
O     3.474000000    -8.987000000     0.805000000
H     2.790000000    -9.647000000     0.689000000
H     3.098000000    -8.187000000     0.439000000
O     1.300000000    -7.556000000    -2.814000000
H     0.879000000    -7.608000000    -3.673000000
H     0.952000000    -8.306000000    -2.331000000
O     5.263000000    -1.084000000    -1.538000000
H     4.323000000    -0.905000000    -1.534000000
H     5.325000000    -2.037000000    -1.478000000
O     4.933000000    -8.135000000    -3.064000000
H     4.515000000    -7.298000000    -3.268000000
H     5.330000000    -8.001000000    -2.204000000
O     1.192000000    -1.393000000    -8.726000000
H     1.328000000    -2.323000000    -8.903000000
H     0.824000000    -1.368000000    -7.843000000
O     5.581000000    -5.664000000    -0.586000000
H     4.720000000    -6.074000000    -0.507000000
H     5.446000000    -4.763000000    -0.293000000
O     4.217000000    -4.935000000    -3.269000000
H     4.855000000    -4.919000000    -2.555000000
H     3.569000000    -4.273000000    -3.027000000
