215
-1462.55098
C     5.211000000    -0.660000000    -2.162000000
H     4.831000000    -1.662000000    -2.344000000
C     5.194000000    -0.073000000    -0.896000000
C     5.605000000     1.244000000    -0.750000000
H     5.461000000     1.752000000     0.201000000
C     4.443000000    -0.785000000     0.258000000
O     4.631000000    -2.213000000     0.233000000
H     3.351000000    -0.650000000     0.250000000
O     4.875000000    -0.264000000     1.505000000
C     3.986000000    -0.026000000     2.496000000
C     3.390000000     1.215000000     2.561000000
H     3.670000000     1.886000000     1.753000000
C     2.382000000     1.487000000     3.493000000
O     1.782000000     2.748000000     3.477000000
C     1.897000000     0.454000000     4.355000000
C     0.774000000     0.763000000     5.355000000
H     0.845000000     0.046000000     6.176000000
C    -0.590000000     0.662000000     4.687000000
C    -1.213000000    -0.546000000     4.763000000
H    -0.868000000    -1.404000000     5.334000000
H     0.858000000     1.740000000     5.835000000
C     2.410000000    -0.806000000     4.207000000
H     2.019000000    -1.667000000     4.743000000
C     3.455000000    -1.046000000     3.299000000
C     4.027000000    -2.434000000     3.110000000
H     3.926000000    -2.879000000     4.102000000
H     5.075000000    -2.304000000     2.832000000
C     3.317000000    -3.107000000     1.979000000
C     2.190000000    -3.826000000     2.300000000
H     1.937000000    -3.599000000     3.333000000
C     3.630000000    -3.014000000     0.632000000
C     2.834000000    -3.623000000    -0.270000000
H     3.078000000    -3.357000000    -1.295000000
C     1.681000000    -4.352000000     0.074000000
O     0.871000000    -4.681000000    -0.913000000
C    -0.294000000    -3.863000000    -1.105000000
C    -0.541000000    -3.617000000    -2.596000000
C    -1.826000000    -3.773000000    -3.187000000
H    -2.685000000    -4.220000000    -2.693000000
C     0.432000000    -3.035000000    -3.351000000
H     1.413000000    -2.786000000    -2.953000000
O    -1.361000000    -4.527000000    -0.446000000
H    -0.107000000    -2.873000000    -0.664000000
C     1.351000000    -4.489000000     1.418000000
C     0.118000000    -5.135000000     1.886000000
H     0.316000000    -5.446000000     2.914000000
H    -0.136000000    -6.011000000     1.286000000
C    -1.117000000    -4.270000000     1.833000000
C    -1.563000000    -3.609000000     3.002000000
H    -0.949000000    -3.745000000     3.889000000
C    -1.838000000    -4.054000000     0.736000000
C    -3.069000000    -3.440000000     0.714000000
H    -3.653000000    -3.352000000    -0.198000000
C    -3.528000000    -2.837000000     1.829000000
O    -4.608000000    -1.997000000     1.695000000
C    -4.305000000    -0.543000000     1.583000000
C    -5.137000000     0.227000000     0.608000000
C    -5.408000000    -0.386000000    -0.607000000
H    -5.144000000    -1.437000000    -0.688000000
C    -5.369000000     1.592000000     0.696000000
H    -5.097000000     2.098000000     1.619000000
O    -4.328000000     0.156000000     2.864000000
H    -3.291000000    -0.549000000     1.157000000
C    -2.758000000    -2.880000000     3.006000000
C    -3.099000000    -2.093000000     4.231000000
H    -2.829000000    -2.744000000     5.065000000
H    -4.177000000    -2.077000000     4.404000000
C    -2.516000000    -0.668000000     4.229000000
C    -3.149000000     0.357000000     3.543000000
C    -2.512000000     1.605000000     3.415000000
H    -3.017000000     2.451000000     2.956000000
C    -1.189000000     1.732000000     3.996000000
O    -0.504000000     2.843000000     3.677000000
C     0.527000000     2.732000000     2.686000000
H     0.402000000     1.756000000     2.194000000
C     0.482000000     3.882000000     1.649000000
C     1.646000000     4.253000000     0.934000000
H     2.626000000     3.871000000     1.210000000
C    -0.676000000     4.510000000     1.315000000
H    -1.618000000     4.211000000     1.768000000
C    -0.745000000     5.520000000     0.301000000
O    -1.944000000     5.872000000    -0.329000000
C     0.427000000     5.927000000    -0.320000000
H     0.372000000     6.723000000    -1.058000000
C     1.588000000     5.335000000     0.054000000
O     2.715000000     5.858000000    -0.582000000
C     4.024000000     5.497000000    -0.288000000
C     4.686000000     4.602000000    -1.137000000
H     4.128000000     4.208000000    -1.982000000
C     4.649000000     5.842000000     0.946000000
H     4.080000000     6.443000000     1.650000000
C     5.945000000     5.382000000     1.267000000
H     6.295000000     5.607000000     2.271000000
C     6.579000000     4.587000000     0.325000000
H     7.593000000     4.243000000     0.513000000
C     5.936000000     4.149000000    -0.818000000
O     6.535000000     3.270000000    -1.716000000
C     6.155000000     1.941000000    -1.840000000
C     6.237000000     1.318000000    -3.081000000
H     6.461000000     1.803000000    -4.028000000
C     5.592000000     0.112000000    -3.258000000
O     5.578000000    -0.409000000    -4.547000000
C     4.725000000    -1.436000000    -4.912000000
C     3.348000000    -1.200000000    -4.986000000
H     3.039000000    -0.195000000    -4.711000000
C     5.263000000    -2.682000000    -5.161000000
H     6.317000000    -2.841000000    -4.947000000
C     4.378000000    -3.727000000    -5.525000000
H     4.712000000    -4.758000000    -5.606000000
C     2.980000000    -3.505000000    -5.530000000
H     2.262000000    -4.273000000    -5.807000000
C     2.492000000    -2.238000000    -5.313000000
O     1.103000000    -2.058000000    -5.514000000
C     0.175000000    -2.587000000    -4.655000000
C    -1.091000000    -2.697000000    -5.224000000
H    -1.263000000    -2.195000000    -6.172000000
C    -2.099000000    -3.242000000    -4.437000000
O    -3.359000000    -3.229000000    -4.981000000
C    -4.524000000    -3.045000000    -4.283000000
C    -4.852000000    -1.785000000    -3.791000000
H    -4.193000000    -0.941000000    -3.973000000
C    -5.433000000    -4.079000000    -4.067000000
H    -5.246000000    -5.060000000    -4.495000000
C    -6.671000000    -3.818000000    -3.559000000
H    -7.341000000    -4.667000000    -3.454000000
C    -6.961000000    -2.574000000    -2.932000000
H    -7.905000000    -2.375000000    -2.431000000
C    -6.062000000    -1.536000000    -3.114000000
O    -6.366000000    -0.249000000    -2.805000000
C    -6.045000000     0.310000000    -1.648000000
C    -6.302000000     1.662000000    -1.538000000
H    -6.773000000     2.154000000    -2.385000000
C    -5.974000000     2.318000000    -0.377000000
O    -6.173000000     3.630000000    -0.347000000
C    -5.325000000     4.550000000     0.270000000
C    -5.829000000     5.351000000     1.340000000
H    -6.851000000     5.358000000     1.709000000
C    -4.969000000     6.216000000     1.902000000
H    -5.312000000     6.801000000     2.752000000
C    -3.708000000     6.418000000     1.343000000
H    -2.992000000     7.162000000     1.682000000
C    -3.208000000     5.609000000     0.332000000
C    -4.048000000     4.721000000    -0.268000000
H    -3.646000000     4.050000000    -1.023000000
C    -1.439000000     0.249000000    -2.356000000
H    -2.073000000     0.391000000    -3.227000000
C    -1.819000000    -0.504000000    -1.271000000
H    -2.774000000    -1.022000000    -1.259000000
C    -1.095000000    -0.518000000    -0.087000000
H    -1.313000000    -1.105000000     0.849000000
C     0.094000000     0.130000000    -0.088000000
H     0.726000000    -0.085000000     0.770000000
C     0.529000000     0.887000000    -1.182000000
H     1.560000000     1.232000000    -1.199000000
C    -0.235000000     0.951000000    -2.367000000
C     0.195000000     1.675000000    -3.568000000
O     1.378000000     2.090000000    -3.689000000
O    -0.664000000     1.872000000    -4.420000000
O    -1.272000000    -3.108000000    -8.705000000
H    -0.545000000    -2.511000000    -8.880000000
H    -1.879000000    -2.596000000    -8.170000000
O     2.813000000     5.783000000    -8.148000000
H     3.515000000     6.232000000    -8.618000000
H     3.158000000     4.905000000    -7.985000000
O     2.416000000     2.583000000    -6.739000000
H     1.573000000     2.240000000    -7.035000000
H     2.353000000     2.585000000    -5.784000000
O     0.156000000     0.644000000    -6.618000000
H     0.219000000    -0.297000000    -6.458000000
H    -0.011000000     1.023000000    -5.755000000
O    -3.251000000    -1.499000000    -7.501000000
H    -2.970000000    -0.662000000    -7.131000000
H    -4.195000000    -1.401000000    -7.626000000
O    -2.974000000     4.242000000    -3.545000000
H    -2.467000000     3.430000000    -3.555000000
H    -3.886000000     3.954000000    -3.501000000
O     2.395000000     4.389000000    -4.204000000
H     1.609000000     4.916000000    -4.058000000
H     2.143000000     3.504000000    -3.939000000
O    -0.257000000     3.706000000    -6.179000000
H     0.523000000     4.247000000    -6.049000000
H    -0.327000000     3.190000000    -5.376000000
O    -0.046000000     2.463000000    -8.973000000
H    -0.375000000     2.206000000    -8.112000000
H    -0.599000000     1.988000000    -9.593000000
O    -5.406000000     1.961000000    -5.266000000
H    -5.897000000     1.719000000    -6.052000000
H    -4.562000000     1.522000000    -5.367000000
O    -2.971000000     2.450000000    -8.103000000
H    -2.750000000     2.393000000    -9.032000000
H    -3.778000000     2.966000000    -8.080000000
O     0.881000000    -1.003000000    -9.080000000
H     1.819000000    -0.930000000    -9.260000000
H     0.709000000    -0.322000000    -8.430000000
O    -2.696000000     0.911000000    -5.917000000
H    -2.657000000     1.530000000    -6.646000000
H    -2.075000000     1.256000000    -5.276000000
O     4.465000000     3.019000000    -8.385000000
H     5.179000000     2.974000000    -7.750000000
H     3.707000000     2.666000000    -7.920000000
O     4.964000000     5.331000000    -4.653000000
H     4.297000000     4.868000000    -4.145000000
H     5.193000000     6.088000000    -4.113000000
O    -2.375000000     6.837000000    -3.226000000
H    -3.228000000     7.203000000    -2.993000000
H    -2.498000000     5.889000000    -3.172000000
O     3.046000000     7.807000000    -5.955000000
H     3.103000000     8.208000000    -6.823000000
H     3.333000000     6.904000000    -6.090000000
O     0.244000000     7.213000000    -7.325000000
H    -0.578000000     6.723000000    -7.359000000
H     0.924000000     6.548000000    -7.429000000
O    -1.999000000     5.802000000    -7.285000000
H    -1.842000000     4.991000000    -6.803000000
H    -2.935000000     5.971000000    -7.170000000
