215
-1453.92137
C     3.746000000     2.445000000     1.108000000
H     3.299000000     1.983000000     1.984000000
C     2.960000000     3.390000000     0.385000000
C     3.489000000     4.039000000    -0.734000000
H     2.919000000     4.796000000    -1.267000000
C     1.579000000     3.768000000     0.833000000
O     1.454000000     3.925000000     2.283000000
H     0.992000000     2.878000000     0.560000000
O     1.058000000     4.891000000     0.176000000
C    -0.173000000     4.709000000    -0.349000000
C    -0.232000000     4.332000000    -1.666000000
H     0.700000000     4.282000000    -2.222000000
C    -1.457000000     4.031000000    -2.217000000
O    -1.436000000     3.463000000    -3.467000000
C    -2.636000000     3.976000000    -1.415000000
C    -3.942000000     3.506000000    -2.025000000
H    -4.697000000     4.091000000    -1.495000000
C    -4.177000000     2.019000000    -1.812000000
C    -4.722000000     1.642000000    -0.564000000
H    -5.091000000     2.306000000     0.213000000
H    -4.085000000     3.753000000    -3.079000000
C    -2.496000000     4.204000000    -0.053000000
H    -3.358000000     4.162000000     0.609000000
C    -1.298000000     4.587000000     0.473000000
C    -1.235000000     4.985000000     1.987000000
H    -2.182000000     5.443000000     2.281000000
H    -0.490000000     5.755000000     2.198000000
C    -0.871000000     3.767000000     2.934000000
C    -1.838000000     3.040000000     3.590000000
H    -2.889000000     3.293000000     3.482000000
C     0.489000000     3.286000000     2.997000000
C     0.818000000     2.158000000     3.689000000
H     1.865000000     1.894000000     3.816000000
C    -0.164000000     1.518000000     4.382000000
O     0.179000000     0.370000000     5.116000000
C    -0.092000000    -0.870000000     4.364000000
C     1.150000000    -1.714000000     4.539000000
C     0.987000000    -3.085000000     4.234000000
H     0.010000000    -3.410000000     3.887000000
C     2.444000000    -1.277000000     4.833000000
H     2.559000000    -0.205000000     4.970000000
O    -1.300000000    -1.543000000     4.783000000
H    -0.198000000    -0.690000000     3.284000000
C    -1.525000000     1.946000000     4.425000000
C    -2.719000000     1.119000000     4.917000000
H    -3.576000000     1.775000000     5.083000000
H    -2.568000000     0.697000000     5.913000000
C    -3.090000000     0.047000000     3.938000000
C    -4.118000000     0.281000000     3.009000000
H    -4.692000000     1.200000000     3.097000000
C    -2.378000000    -1.221000000     3.906000000
C    -2.798000000    -2.214000000     3.011000000
H    -2.298000000    -3.178000000     3.058000000
C    -3.746000000    -1.883000000     2.041000000
O    -3.980000000    -2.850000000     1.090000000
C    -3.316000000    -2.640000000    -0.207000000
C    -2.610000000    -3.887000000    -0.731000000
C    -1.999000000    -4.810000000     0.116000000
H    -1.973000000    -4.672000000     1.193000000
C    -2.579000000    -4.042000000    -2.088000000
H    -2.961000000    -3.272000000    -2.753000000
O    -4.404000000    -2.014000000    -1.131000000
H    -2.575000000    -1.833000000    -0.108000000
C    -4.378000000    -0.649000000     1.999000000
C    -5.421000000    -0.248000000     0.966000000
H    -6.058000000     0.588000000     1.264000000
H    -6.183000000    -0.986000000     0.709000000
C    -4.820000000     0.262000000    -0.354000000
C    -4.389000000    -0.634000000    -1.337000000
C    -3.742000000    -0.288000000    -2.458000000
H    -3.331000000    -1.031000000    -3.136000000
C    -3.555000000     1.120000000    -2.630000000
O    -2.758000000     1.527000000    -3.750000000
C    -1.440000000     2.031000000    -3.468000000
H    -1.179000000     1.732000000    -2.442000000
C    -0.390000000     1.378000000    -4.434000000
C     0.806000000     1.972000000    -4.678000000
H     1.121000000     2.825000000    -4.082000000
C    -0.696000000     0.173000000    -5.078000000
H    -1.694000000    -0.243000000    -4.968000000
C     0.251000000    -0.475000000    -5.978000000
O    -0.001000000    -1.649000000    -6.617000000
C     1.467000000     0.160000000    -6.153000000
H     2.032000000    -0.222000000    -7.000000000
C     1.757000000     1.359000000    -5.511000000
O     3.002000000     2.050000000    -5.740000000
C     3.403000000     3.210000000    -5.095000000
C     4.223000000     3.150000000    -3.986000000
H     4.591000000     2.258000000    -3.487000000
C     3.079000000     4.421000000    -5.756000000
H     2.492000000     4.400000000    -6.671000000
C     3.339000000     5.659000000    -5.134000000
H     3.226000000     6.618000000    -5.634000000
C     4.125000000     5.579000000    -3.983000000
H     4.463000000     6.452000000    -3.431000000
C     4.560000000     4.368000000    -3.428000000
O     5.281000000     4.294000000    -2.308000000
C     4.819000000     3.703000000    -1.150000000
C     5.626000000     2.848000000    -0.451000000
H     6.640000000     2.653000000    -0.790000000
C     5.074000000     2.244000000     0.699000000
O     5.886000000     1.308000000     1.308000000
C     5.755000000     0.980000000     2.658000000
C     5.251000000    -0.275000000     3.088000000
H     4.800000000    -0.959000000     2.373000000
C     6.251000000     1.916000000     3.520000000
H     6.547000000     2.884000000     3.123000000
C     6.276000000     1.676000000     4.876000000
H     6.726000000     2.420000000     5.528000000
C     5.824000000     0.436000000     5.401000000
H     5.724000000     0.235000000     6.464000000
C     5.176000000    -0.432000000     4.481000000
O     4.806000000    -1.666000000     5.025000000
C     3.547000000    -2.110000000     4.777000000
C     3.281000000    -3.434000000     4.604000000
H     4.138000000    -4.103000000     4.604000000
C     2.074000000    -3.971000000     4.316000000
O     2.036000000    -5.338000000     4.104000000
C     1.008000000    -5.990000000     3.604000000
C     0.708000000    -5.998000000     2.217000000
H     1.437000000    -5.515000000     1.571000000
C     0.211000000    -6.782000000     4.524000000
H     0.517000000    -6.940000000     5.555000000
C    -0.911000000    -7.417000000     4.002000000
H    -1.439000000    -8.056000000     4.705000000
C    -1.274000000    -7.351000000     2.629000000
H    -2.214000000    -7.796000000     2.312000000
C    -0.400000000    -6.664000000     1.697000000
O    -0.559000000    -6.726000000     0.324000000
C    -1.425000000    -5.965000000    -0.389000000
C    -1.403000000    -6.125000000    -1.759000000
H    -0.996000000    -7.059000000    -2.139000000
C    -1.906000000    -5.174000000    -2.628000000
O    -1.658000000    -5.370000000    -3.963000000
C    -1.807000000    -4.424000000    -4.939000000
C    -2.827000000    -4.548000000    -5.894000000
H    -3.551000000    -5.354000000    -5.807000000
C    -3.001000000    -3.656000000    -6.970000000
H    -3.797000000    -3.633000000    -7.710000000
C    -2.016000000    -2.691000000    -7.144000000
H    -2.077000000    -1.997000000    -7.978000000
C    -0.920000000    -2.535000000    -6.284000000
C    -0.845000000    -3.465000000    -5.182000000
H     0.021000000    -3.428000000    -4.527000000
C     1.253000000    -0.200000000    -1.196000000
H     2.079000000    -0.143000000    -1.900000000
C     0.487000000     0.915000000    -0.783000000
H     0.703000000     1.811000000    -1.360000000
C    -0.458000000     0.803000000     0.253000000
H    -1.102000000     1.615000000     0.466000000
C    -0.611000000    -0.443000000     0.874000000
H    -1.359000000    -0.601000000     1.646000000
C     0.117000000    -1.565000000     0.422000000
H    -0.019000000    -2.536000000     0.891000000
C     1.111000000    -1.399000000    -0.530000000
C     2.116000000    -2.497000000    -0.854000000
O     2.165000000    -3.519000000    -0.181000000
O     2.974000000    -2.310000000    -1.679000000
O     2.652000000    -8.302000000     1.907000000
H     2.952000000    -7.594000000     1.337000000
H     3.145000000    -8.182000000     2.718000000
O     5.409000000    -0.446000000    -3.138000000
H     4.648000000    -0.818000000    -3.585000000
H     5.445000000    -0.909000000    -2.301000000
O     4.530000000    -3.801000000     1.388000000
H     4.569000000    -4.756000000     1.440000000
H     3.634000000    -3.612000000     1.109000000
O     4.740000000     0.053000000    -6.211000000
H     4.344000000     0.910000000    -6.050000000
H     4.241000000    -0.549000000    -5.659000000
O     2.815000000    -1.274000000    -4.125000000
H     2.842000000    -1.673000000    -3.256000000
H     1.892000000    -1.057000000    -4.261000000
O     8.133000000    -3.525000000    -2.162000000
H     7.403000000    -4.135000000    -2.265000000
H     8.227000000    -3.116000000    -3.023000000
O     1.727000000    -5.914000000    -1.257000000
H     1.064000000    -6.350000000    -0.722000000
H     1.935000000    -5.113000000    -0.777000000
O     7.606000000    -0.109000000    -0.623000000
H     7.209000000    -0.953000000    -0.837000000
H     6.862000000     0.477000000    -0.484000000
O     6.678000000    -2.344000000    -6.391000000
H     6.167000000    -1.536000000    -6.359000000
H     6.081000000    -3.019000000    -6.068000000
O     7.609000000    -3.759000000     0.547000000
H     8.269000000    -3.610000000    -0.130000000
H     6.836000000    -3.288000000     0.235000000
O     4.487000000    -8.973000000    -1.646000000
H     5.054000000    -9.144000000    -0.894000000
H     4.953000000    -9.356000000    -2.389000000
O     4.761000000    -4.418000000    -5.983000000
H     3.940000000    -4.695000000    -6.389000000
H     4.624000000    -4.559000000    -5.046000000
O     7.515000000     1.075000000    -4.232000000
H     7.841000000     1.429000000    -3.405000000
H     6.895000000     0.393000000    -3.973000000
O     1.161000000    -8.703000000    -4.756000000
H     1.501000000    -9.049000000    -5.581000000
H     1.858000000    -8.134000000    -4.429000000
O     5.481000000    -2.022000000    -0.365000000
H     4.898000000    -2.323000000    -1.062000000
H     5.108000000    -2.392000000     0.435000000
O     6.741000000    -6.001000000    -3.226000000
H     6.908000000    -6.863000000    -2.846000000
H     6.375000000    -6.187000000    -4.091000000
O     4.422000000    -6.293000000     0.193000000
H     3.750000000    -6.319000000    -0.489000000
H     5.249000000    -6.264000000    -0.287000000
O     3.394000000    -7.187000000    -4.724000000
H     3.441000000    -6.866000000    -5.625000000
H     2.960000000    -6.483000000    -4.241000000
O     2.475000000    -4.634000000    -3.578000000
H     2.174000000    -5.050000000    -2.771000000
H     2.634000000    -3.722000000    -3.333000000
