215
-1457.91726
C    -2.461000000    -0.898000000    -4.208000000
H    -2.141000000    -1.937000000    -4.177000000
C    -1.498000000     0.095000000    -4.023000000
C    -1.860000000     1.472000000    -3.839000000
H    -1.122000000     2.219000000    -3.558000000
C    -0.038000000    -0.230000000    -3.960000000
O     0.281000000    -1.591000000    -4.422000000
H     0.169000000    -0.170000000    -2.882000000
O     0.810000000     0.805000000    -4.531000000
C     1.975000000     1.134000000    -3.894000000
C     2.008000000     2.487000000    -3.500000000
H     1.164000000     3.130000000    -3.734000000
C     2.952000000     2.831000000    -2.596000000
O     2.756000000     4.017000000    -1.955000000
C     4.000000000     1.998000000    -2.280000000
C     5.031000000     2.424000000    -1.236000000
H     6.072000000     2.174000000    -1.452000000
C     4.555000000     1.968000000     0.155000000
C     4.921000000     0.738000000     0.658000000
H     5.518000000     0.041000000     0.074000000
H     5.106000000     3.513000000    -1.210000000
C     4.080000000     0.730000000    -2.872000000
H     4.950000000     0.152000000    -2.572000000
C     3.034000000     0.277000000    -3.623000000
C     3.090000000    -1.055000000    -4.344000000
H     4.125000000    -1.391000000    -4.430000000
H     2.632000000    -1.066000000    -5.335000000
C     2.448000000    -2.192000000    -3.500000000
C     3.158000000    -3.002000000    -2.626000000
H     4.226000000    -2.807000000    -2.572000000
C     1.037000000    -2.380000000    -3.582000000
C     0.432000000    -3.430000000    -2.929000000
H    -0.634000000    -3.638000000    -2.963000000
C     1.190000000    -4.190000000    -2.041000000
O     0.528000000    -5.101000000    -1.311000000
C     0.083000000    -4.558000000    -0.004000000
C    -1.369000000    -4.808000000     0.278000000
C    -1.809000000    -4.694000000     1.625000000
H    -1.061000000    -4.436000000     2.370000000
C    -2.255000000    -5.068000000    -0.778000000
H    -1.875000000    -5.315000000    -1.766000000
O     1.044000000    -5.069000000     0.965000000
H     0.215000000    -3.467000000    -0.055000000
C     2.554000000    -3.982000000    -1.841000000
C     3.308000000    -4.668000000    -0.747000000
H     4.364000000    -4.643000000    -1.023000000
H     2.999000000    -5.693000000    -0.535000000
C     3.200000000    -3.892000000     0.545000000
C     4.158000000    -2.893000000     0.790000000
H     4.866000000    -2.619000000     0.012000000
C     2.105000000    -4.243000000     1.317000000
C     1.916000000    -3.475000000     2.491000000
H     1.072000000    -3.614000000     3.163000000
C     2.828000000    -2.448000000     2.806000000
O     2.420000000    -1.615000000     3.823000000
C     1.865000000    -0.312000000     3.626000000
C     0.614000000     0.060000000     4.439000000
C    -0.152000000    -0.982000000     5.024000000
H     0.198000000    -2.009000000     5.076000000
C     0.210000000     1.373000000     4.505000000
H     0.776000000     2.173000000     4.035000000
O     2.931000000     0.663000000     3.758000000
H     1.539000000    -0.330000000     2.576000000
C     3.936000000    -2.194000000     1.985000000
C     4.833000000    -1.023000000     2.334000000
H     5.841000000    -1.256000000     1.983000000
H     4.974000000    -0.988000000     3.416000000
C     4.354000000     0.330000000     1.850000000
C     3.523000000     1.161000000     2.582000000
C     3.113000000     2.371000000     2.122000000
H     2.397000000     3.005000000     2.639000000
C     3.666000000     2.756000000     0.893000000
O     3.235000000     3.955000000     0.398000000
C     2.200000000     3.887000000    -0.649000000
H     1.715000000     2.904000000    -0.558000000
C     1.152000000     4.997000000    -0.339000000
C     0.381000000     5.546000000    -1.334000000
H     0.678000000     5.432000000    -2.374000000
C     0.873000000     5.387000000     0.975000000
H     1.422000000     4.917000000     1.788000000
C    -0.211000000     6.237000000     1.256000000
O    -0.633000000     6.718000000     2.521000000
C    -0.977000000     6.692000000     0.210000000
H    -1.878000000     7.266000000     0.412000000
C    -0.643000000     6.399000000    -1.098000000
O    -1.326000000     6.940000000    -2.084000000
C    -1.801000000     6.174000000    -3.129000000
C    -2.554000000     5.079000000    -2.751000000
H    -2.757000000     4.938000000    -1.692000000
C    -1.488000000     6.369000000    -4.461000000
H    -1.022000000     7.278000000    -4.834000000
C    -2.071000000     5.580000000    -5.481000000
H    -1.983000000     5.779000000    -6.546000000
C    -2.807000000     4.517000000    -5.029000000
H    -3.229000000     3.824000000    -5.753000000
C    -2.967000000     4.224000000    -3.708000000
O    -3.665000000     3.072000000    -3.464000000
C    -3.173000000     1.810000000    -3.771000000
C    -4.113000000     0.810000000    -3.903000000
H    -5.160000000     1.068000000    -3.767000000
C    -3.792000000    -0.526000000    -4.153000000
O    -4.846000000    -1.424000000    -4.251000000
C    -4.794000000    -2.758000000    -4.084000000
C    -4.705000000    -3.350000000    -2.816000000
H    -4.723000000    -2.804000000    -1.876000000
C    -4.787000000    -3.497000000    -5.262000000
H    -4.915000000    -3.023000000    -6.232000000
C    -4.638000000    -4.910000000    -5.182000000
H    -4.625000000    -5.564000000    -6.050000000
C    -4.452000000    -5.506000000    -3.901000000
H    -4.389000000    -6.591000000    -3.878000000
C    -4.602000000    -4.743000000    -2.748000000
O    -4.502000000    -5.412000000    -1.515000000
C    -3.615000000    -5.092000000    -0.511000000
C    -4.023000000    -4.916000000     0.764000000
H    -5.078000000    -5.016000000     1.006000000
C    -3.186000000    -4.673000000     1.886000000
O    -3.792000000    -4.512000000     3.124000000
C    -3.113000000    -4.353000000     4.288000000
C    -2.856000000    -3.021000000     4.727000000
H    -3.205000000    -2.152000000     4.176000000
C    -2.593000000    -5.493000000     4.994000000
H    -2.733000000    -6.512000000     4.643000000
C    -1.803000000    -5.193000000     6.114000000
H    -1.335000000    -5.977000000     6.704000000
C    -1.600000000    -3.818000000     6.595000000
H    -0.840000000    -3.701000000     7.364000000
C    -2.197000000    -2.792000000     5.908000000
O    -2.041000000    -1.542000000     6.379000000
C    -1.331000000    -0.660000000     5.682000000
C    -1.802000000     0.658000000     5.598000000
H    -2.772000000     0.865000000     6.043000000
C    -1.022000000     1.692000000     5.125000000
O    -1.558000000     2.958000000     5.214000000
C    -0.789000000     4.098000000     4.980000000
C    -0.008000000     4.648000000     6.031000000
H     0.201000000     4.034000000     6.903000000
C     0.559000000     5.927000000     5.880000000
H     1.153000000     6.377000000     6.671000000
C     0.283000000     6.682000000     4.753000000
H     0.661000000     7.684000000     4.568000000
C    -0.368000000     6.075000000     3.713000000
C    -0.986000000     4.841000000     3.824000000
H    -1.523000000     4.410000000     2.983000000
C    -2.076000000    -0.623000000     0.202000000
H    -2.488000000    -1.626000000     0.278000000
C    -0.710000000    -0.532000000     0.327000000
H    -0.009000000    -1.320000000     0.589000000
C    -0.145000000     0.702000000     0.343000000
H     0.867000000     0.904000000     0.515000000
C    -0.979000000     1.873000000     0.119000000
H    -0.597000000     2.891000000     0.134000000
C    -2.380000000     1.752000000    -0.109000000
H    -3.021000000     2.626000000    -0.196000000
C    -2.971000000     0.486000000     0.039000000
C    -4.381000000     0.239000000    -0.167000000
O    -5.094000000     1.195000000    -0.322000000
O    -4.880000000    -0.886000000    -0.262000000
O   -10.190000000    -1.190000000    -0.596000000
H    -9.530000000    -0.558000000    -0.310000000
H    -9.702000000    -1.826000000    -1.120000000
O    -7.830000000     0.678000000     0.499000000
H    -7.657000000     1.619000000     0.528000000
H    -6.976000000     0.283000000     0.320000000
O    -6.576000000     3.293000000    -4.339000000
H    -5.670000000     3.172000000    -4.054000000
H    -6.553000000     3.137000000    -5.283000000
O    -7.698000000     0.719000000    -5.238000000
H    -7.000000000     1.106000000    -5.766000000
H    -7.380000000     0.782000000    -4.337000000
O    -6.665000000    -2.590000000     0.272000000
H    -7.063000000    -2.640000000    -0.597000000
H    -5.968000000    -1.941000000     0.180000000
O    -9.626000000     2.925000000    -2.208000000
H    -9.641000000     2.497000000    -3.064000000
H   -10.453000000     2.670000000    -1.798000000
O    -4.655000000     0.496000000     4.233000000
H    -4.111000000     0.987000000     3.617000000
H    -4.866000000    -0.316000000     3.773000000
O    -9.035000000    -4.049000000     1.075000000
H    -9.497000000    -3.832000000     1.885000000
H    -8.262000000    -3.485000000     1.083000000
O    -5.249000000     5.882000000    -0.606000000
H    -5.379000000     6.572000000    -1.257000000
H    -5.246000000     5.071000000    -1.114000000
O    -5.396000000    -1.599000000     3.051000000
H    -5.147000000    -1.476000000     2.135000000
H    -5.638000000    -2.523000000     3.111000000
O    -7.699000000    -0.585000000     4.486000000
H    -7.238000000     0.070000000     5.010000000
H    -7.024000000    -1.221000000     4.248000000
O    -9.497000000     0.425000000     2.661000000
H    -9.002000000     0.152000000     3.434000000
H    -8.842000000     0.478000000     1.965000000
O    -7.968000000    -2.446000000    -2.143000000
H    -7.878000000    -3.039000000    -2.890000000
H    -7.413000000    -1.697000000    -2.364000000
O    -7.191000000     0.140000000    -2.150000000
H    -6.442000000     0.168000000    -1.554000000
H    -7.927000000     0.453000000    -1.624000000
O    -4.860000000     7.056000000     2.058000000
H    -5.672000000     6.730000000     2.447000000
H    -4.831000000     6.653000000     1.191000000
O    -5.249000000     3.600000000     4.220000000
H    -5.174000000     2.754000000     4.662000000
H    -5.216000000     4.244000000     4.927000000
O    -5.945000000     3.139000000    -1.711000000
H    -5.410000000     2.428000000    -1.358000000
H    -6.786000000     2.729000000    -1.913000000
O    -6.229000000     2.987000000     1.578000000
H    -5.665000000     2.377000000     1.103000000
H    -5.764000000     3.154000000     2.398000000
O    -8.252000000     4.715000000     1.150000000
H    -7.899000000     3.934000000     1.576000000
H    -7.677000000     4.860000000     0.399000000
