215
-1455.30446
C     3.970000000    -1.335000000    -2.469000000
H     3.614000000    -2.333000000    -2.228000000
C     4.287000000    -0.412000000    -1.514000000
C     4.768000000     0.823000000    -1.859000000
H     5.145000000     1.524000000    -1.118000000
C     4.140000000    -0.751000000    -0.038000000
O     4.230000000    -2.210000000     0.199000000
H     3.109000000    -0.410000000     0.138000000
O     4.940000000     0.003000000     0.873000000
C     4.234000000     0.587000000     1.934000000
C     3.807000000     1.884000000     1.709000000
H     3.991000000     2.315000000     0.729000000
C     3.015000000     2.462000000     2.681000000
O     2.449000000     3.672000000     2.478000000
C     2.610000000     1.674000000     3.779000000
C     1.599000000     2.188000000     4.834000000
H     1.789000000     1.606000000     5.739000000
C     0.159000000     2.032000000     4.411000000
C    -0.655000000     1.039000000     5.026000000
H    -0.264000000     0.339000000     5.760000000
H     1.872000000     3.231000000     5.007000000
C     3.031000000     0.342000000     3.935000000
H     2.758000000    -0.220000000     4.824000000
C     3.847000000    -0.200000000     2.994000000
C     4.267000000    -1.706000000     3.056000000
H     4.375000000    -2.048000000     4.087000000
H     5.247000000    -1.768000000     2.579000000
C     3.310000000    -2.663000000     2.398000000
C     2.274000000    -3.169000000     3.246000000
H     2.207000000    -2.902000000     4.297000000
C     3.304000000    -2.850000000     1.015000000
C     2.420000000    -3.806000000     0.438000000
H     2.506000000    -4.130000000    -0.596000000
C     1.490000000    -4.399000000     1.266000000
O     0.539000000    -5.059000000     0.507000000
C    -0.655000000    -4.302000000     0.176000000
C    -1.102000000    -4.703000000    -1.263000000
C    -2.439000000    -4.809000000    -1.558000000
H    -3.146000000    -4.582000000    -0.764000000
C    -0.190000000    -5.072000000    -2.247000000
H     0.881000000    -4.941000000    -2.118000000
O    -1.694000000    -4.580000000     1.103000000
H    -0.374000000    -3.239000000     0.221000000
C     1.398000000    -4.106000000     2.628000000
C     0.168000000    -4.615000000     3.458000000
H     0.283000000    -4.641000000     4.544000000
H    -0.148000000    -5.598000000     3.102000000
C    -1.016000000    -3.599000000     3.240000000
C    -1.166000000    -2.556000000     4.194000000
H    -0.394000000    -2.499000000     4.958000000
C    -1.851000000    -3.690000000     2.134000000
C    -2.907000000    -2.776000000     1.988000000
H    -3.533000000    -2.808000000     1.100000000
C    -3.082000000    -1.773000000     2.883000000
O    -4.093000000    -0.903000000     2.505000000
C    -3.683000000     0.391000000     2.008000000
C    -4.602000000     0.894000000     0.918000000
C    -5.051000000     0.026000000    -0.056000000
H    -4.682000000    -0.994000000    -0.130000000
C    -4.971000000     2.239000000     0.768000000
H    -4.705000000     2.950000000     1.546000000
O    -3.751000000     1.258000000     3.165000000
H    -2.702000000     0.363000000     1.511000000
C    -2.255000000    -1.626000000     4.027000000
C    -2.643000000    -0.538000000     5.102000000
H    -2.385000000    -0.711000000     6.149000000
H    -3.728000000    -0.530000000     5.221000000
C    -2.007000000     0.764000000     4.661000000
C    -2.521000000     1.642000000     3.698000000
C    -1.787000000     2.679000000     3.113000000
H    -2.189000000     3.221000000     2.261000000
C    -0.463000000     2.838000000     3.503000000
O     0.107000000     3.879000000     2.766000000
C     1.167000000     3.586000000     1.806000000
H     0.940000000     2.563000000     1.471000000
C     1.024000000     4.392000000     0.565000000
C     2.180000000     5.046000000    -0.060000000
H     3.169000000     4.972000000     0.385000000
C    -0.204000000     4.493000000    -0.111000000
H    -1.077000000     3.949000000     0.243000000
C    -0.293000000     5.038000000    -1.340000000
O    -1.514000000     5.026000000    -1.947000000
C     0.835000000     5.649000000    -1.903000000
H     0.850000000     6.020000000    -2.925000000
C     2.026000000     5.631000000    -1.269000000
O     3.087000000     6.228000000    -1.863000000
C     4.237000000     5.444000000    -1.984000000
C     4.180000000     4.219000000    -2.641000000
H     3.181000000     3.894000000    -2.922000000
C     5.432000000     5.857000000    -1.385000000
H     5.504000000     6.826000000    -0.899000000
C     6.574000000     5.097000000    -1.480000000
H     7.536000000     5.444000000    -1.111000000
C     6.535000000     3.886000000    -2.300000000
H     7.476000000     3.391000000    -2.528000000
C     5.287000000     3.449000000    -2.791000000
O     5.256000000     2.427000000    -3.715000000
C     4.877000000     1.166000000    -3.256000000
C     4.519000000     0.302000000    -4.244000000
H     4.689000000     0.579000000    -5.281000000
C     4.111000000    -0.979000000    -3.840000000
O     3.711000000    -1.783000000    -4.879000000
C     3.337000000    -3.119000000    -4.683000000
C     2.020000000    -3.541000000    -4.834000000
H     1.327000000    -2.761000000    -5.138000000
C     4.262000000    -4.027000000    -4.191000000
H     5.249000000    -3.685000000    -3.890000000
C     3.857000000    -5.331000000    -3.912000000
H     4.564000000    -5.968000000    -3.387000000
C     2.519000000    -5.759000000    -4.100000000
H     2.148000000    -6.737000000    -3.806000000
C     1.607000000    -4.828000000    -4.557000000
O     0.234000000    -5.183000000    -4.618000000
C    -0.669000000    -5.125000000    -3.574000000
C    -2.002000000    -5.047000000    -3.859000000
H    -2.353000000    -4.980000000    -4.885000000
C    -2.936000000    -4.976000000    -2.877000000
O    -4.263000000    -4.725000000    -3.268000000
C    -5.164000000    -3.961000000    -2.518000000
C    -5.279000000    -2.596000000    -2.654000000
H    -4.626000000    -2.035000000    -3.318000000
C    -6.129000000    -4.670000000    -1.840000000
H    -6.191000000    -5.753000000    -1.917000000
C    -7.114000000    -3.950000000    -1.137000000
H    -7.924000000    -4.473000000    -0.635000000
C    -7.164000000    -2.560000000    -1.202000000
H    -8.056000000    -2.083000000    -0.805000000
C    -6.182000000    -1.848000000    -1.888000000
O    -6.222000000    -0.464000000    -2.053000000
C    -5.832000000     0.451000000    -1.093000000
C    -6.182000000     1.817000000    -1.245000000
H    -6.830000000     2.156000000    -2.050000000
C    -5.743000000     2.700000000    -0.312000000
O    -5.993000000     4.043000000    -0.538000000
C    -4.956000000     4.933000000    -0.648000000
C    -5.046000000     6.242000000    -0.195000000
H    -5.966000000     6.644000000     0.221000000
C    -3.961000000     7.164000000    -0.372000000
H    -3.947000000     8.224000000    -0.128000000
C    -2.781000000     6.716000000    -1.000000000
H    -1.981000000     7.424000000    -1.199000000
C    -2.710000000     5.441000000    -1.455000000
C    -3.783000000     4.552000000    -1.232000000
H    -3.683000000     3.563000000    -1.673000000
C     0.023000000    -0.941000000    -2.582000000
H    -0.334000000    -1.938000000    -2.827000000
C     0.298000000    -0.687000000    -1.242000000
H     0.329000000    -1.435000000    -0.454000000
C     0.804000000     0.537000000    -0.884000000
H     1.177000000     0.599000000     0.137000000
C     1.089000000     1.536000000    -1.845000000
H     1.650000000     2.415000000    -1.540000000
C     0.706000000     1.309000000    -3.180000000
H     0.923000000     2.091000000    -3.904000000
C     0.143000000     0.080000000    -3.592000000
C    -0.264000000    -0.074000000    -5.022000000
O    -0.084000000     0.810000000    -5.833000000
O    -0.758000000    -1.096000000    -5.511000000
O     0.757000000     2.708000000    -7.769000000
H     1.610000000     2.353000000    -8.019000000
H     0.286000000     1.961000000    -7.399000000
O     1.905000000    -0.633000000    -7.390000000
H     1.337000000    -0.398000000    -6.657000000
H     1.355000000    -1.175000000    -7.955000000
O    -3.190000000     4.930000000    -7.538000000
H    -3.269000000     4.354000000    -6.777000000
H    -2.264000000     4.888000000    -7.775000000
O     3.490000000     4.196000000    -6.082000000
H     3.800000000     3.583000000    -5.416000000
H     3.126000000     3.639000000    -6.770000000
O    -0.708000000     4.915000000    -8.212000000
H    -0.088000000     5.642000000    -8.161000000
H    -0.164000000     4.130000000    -8.141000000
O    -4.085000000     1.329000000    -4.896000000
H    -3.554000000     1.098000000    -4.134000000
H    -4.954000000     0.982000000    -4.697000000
O    -5.543000000    -1.709000000    -6.486000000
H    -6.431000000    -1.483000000    -6.208000000
H    -5.173000000    -0.882000000    -6.796000000
O    -2.686000000    -2.768000000    -6.096000000
H    -3.466000000    -2.380000000    -5.699000000
H    -1.959000000    -2.249000000    -5.753000000
O    -2.198000000    -4.784000000    -7.828000000
H    -2.262000000    -4.143000000    -7.120000000
H    -2.569000000    -5.586000000    -7.459000000
O    -1.505000000     3.149000000    -5.507000000
H    -0.841000000     2.505000000    -5.753000000
H    -2.254000000     2.625000000    -5.222000000
O     0.604000000     5.231000000    -5.197000000
H     1.361000000     4.996000000    -5.734000000
H    -0.081000000     4.620000000    -5.469000000
O    -4.411000000     0.744000000    -7.533000000
H    -4.320000000     1.196000000    -6.695000000
H    -3.542000000     0.382000000    -7.706000000
O    -1.728000000    -0.005000000    -7.835000000
H    -1.248000000     0.275000000    -7.055000000
H    -1.489000000    -0.926000000    -7.945000000
O    -1.937000000     1.722000000   -10.130000000
H    -1.804000000     0.944000000   -10.671000000
H    -1.999000000     1.385000000    -9.237000000
O    -2.773000000     0.567000000    -2.713000000
H    -2.906000000     0.160000000    -1.857000000
H    -1.822000000     0.584000000    -2.825000000
O     0.177000000    -2.620000000    -8.660000000
H    -0.584000000    -3.124000000    -8.947000000
H     0.817000000    -3.281000000    -8.397000000
O     3.431000000     1.637000000    -7.938000000
H     2.890000000     0.920000000    -7.609000000
H     4.138000000     1.204000000    -8.416000000
O     3.864000000    -2.517000000    -7.843000000
H     3.292000000    -1.839000000    -7.483000000
H     4.736000000    -2.292000000    -7.518000000
O     2.184000000    -4.383000000    -7.792000000
H     2.804000000    -3.714000000    -8.082000000
H     2.529000000    -4.681000000    -6.950000000
