215
-1465.72431
C     4.655000000    -1.164000000    -2.022000000
H     4.390000000    -2.097000000    -1.532000000
C     4.791000000    -0.035000000    -1.296000000
C     5.097000000     1.241000000    -1.893000000
H     5.088000000     2.189000000    -1.361000000
C     4.390000000    -0.194000000     0.132000000
O     4.577000000    -1.539000000     0.750000000
H     3.303000000    -0.039000000     0.057000000
O     5.039000000     0.719000000     1.095000000
C     4.239000000     1.443000000     1.998000000
C     3.682000000     2.570000000     1.566000000
H     3.809000000     2.938000000     0.551000000
C     2.659000000     3.166000000     2.338000000
O     1.925000000     4.205000000     1.753000000
C     2.269000000     2.629000000     3.580000000
C     1.105000000     3.146000000     4.335000000
H     1.260000000     2.910000000     5.390000000
C    -0.219000000     2.611000000     3.935000000
C    -0.825000000     1.543000000     4.602000000
H    -0.287000000     1.062000000     5.415000000
H     1.149000000     4.236000000     4.371000000
C     2.873000000     1.461000000     4.038000000
H     2.470000000     0.907000000     4.882000000
C     3.843000000     0.825000000     3.198000000
C     4.347000000    -0.583000000     3.636000000
H     4.250000000    -0.691000000     4.719000000
H     5.396000000    -0.817000000     3.445000000
C     3.449000000    -1.611000000     2.936000000
C     2.465000000    -2.218000000     3.707000000
H     2.210000000    -1.902000000     4.715000000
C     3.595000000    -2.012000000     1.536000000
C     2.714000000    -2.992000000     1.052000000
H     2.741000000    -3.217000000    -0.011000000
C     1.778000000    -3.618000000     1.831000000
O     0.873000000    -4.511000000     1.216000000
C    -0.490000000    -4.108000000     0.794000000
C    -0.709000000    -4.437000000    -0.726000000
C    -1.959000000    -4.824000000    -1.122000000
H    -2.734000000    -4.951000000    -0.371000000
C     0.314000000    -4.417000000    -1.737000000
H     1.330000000    -4.184000000    -1.430000000
O    -1.461000000    -4.592000000     1.734000000
H    -0.445000000    -3.009000000     0.785000000
C     1.579000000    -3.248000000     3.161000000
C     0.469000000    -3.907000000     3.998000000
H     0.613000000    -3.825000000     5.077000000
H     0.354000000    -4.952000000     3.702000000
C    -0.875000000    -3.251000000     3.716000000
C    -1.190000000    -2.129000000     4.501000000
H    -0.481000000    -1.782000000     5.248000000
C    -1.771000000    -3.663000000     2.728000000
C    -2.971000000    -2.959000000     2.497000000
H    -3.681000000    -3.321000000     1.759000000
C    -3.212000000    -1.869000000     3.221000000
O    -4.282000000    -1.068000000     2.756000000
C    -3.843000000    -0.061000000     1.796000000
C    -4.806000000     0.002000000     0.644000000
C    -5.509000000    -1.085000000     0.298000000
H    -5.650000000    -2.022000000     0.830000000
C    -4.799000000     1.113000000    -0.076000000
H    -4.180000000     1.934000000     0.278000000
O    -3.777000000     1.232000000     2.517000000
H    -2.867000000    -0.178000000     1.303000000
C    -2.346000000    -1.427000000     4.200000000
C    -2.645000000    -0.123000000     4.910000000
H    -2.134000000    -0.224000000     5.870000000
H    -3.703000000     0.064000000     5.105000000
C    -2.018000000     1.065000000     4.167000000
C    -2.662000000     1.711000000     3.124000000
C    -2.061000000     2.684000000     2.413000000
H    -2.447000000     3.102000000     1.487000000
C    -0.858000000     3.211000000     2.870000000
O    -0.344000000     4.217000000     2.113000000
C     0.675000000     3.906000000     1.112000000
H     0.577000000     2.827000000     0.925000000
C     0.454000000     4.699000000    -0.172000000
C     1.516000000     4.986000000    -1.016000000
H     2.533000000     4.755000000    -0.707000000
C    -0.842000000     5.104000000    -0.505000000
H    -1.676000000     4.799000000     0.122000000
C    -1.085000000     5.627000000    -1.733000000
O    -2.364000000     6.083000000    -2.070000000
C    -0.057000000     5.883000000    -2.629000000
H    -0.212000000     6.479000000    -3.525000000
C     1.258000000     5.556000000    -2.313000000
O     2.255000000     5.901000000    -3.185000000
C     3.602000000     5.515000000    -3.117000000
C     3.918000000     4.217000000    -3.381000000
H     3.133000000     3.476000000    -3.507000000
C     4.534000000     6.481000000    -3.008000000
H     4.270000000     7.535000000    -2.964000000
C     5.886000000     6.119000000    -2.912000000
H     6.622000000     6.911000000    -2.803000000
C     6.297000000     4.812000000    -3.222000000
H     7.355000000     4.578000000    -3.314000000
C     5.276000000     3.867000000    -3.474000000
O     5.578000000     2.607000000    -3.903000000
C     5.239000000     1.378000000    -3.271000000
C     5.257000000     0.150000000    -4.015000000
H     5.442000000     0.175000000    -5.086000000
C     4.964000000    -1.056000000    -3.419000000
O     5.036000000    -2.193000000    -4.211000000
C     4.390000000    -3.386000000    -3.949000000
C     3.031000000    -3.565000000    -4.233000000
H     2.457000000    -2.778000000    -4.715000000
C     5.060000000    -4.383000000    -3.143000000
H     6.101000000    -4.288000000    -2.842000000
C     4.378000000    -5.501000000    -2.797000000
H     4.906000000    -6.252000000    -2.214000000
C     3.105000000    -5.749000000    -3.184000000
H     2.563000000    -6.656000000    -2.931000000
C     2.375000000    -4.691000000    -3.805000000
O     1.050000000    -4.836000000    -4.072000000
C     0.047000000    -4.815000000    -3.085000000
C    -1.256000000    -5.005000000    -3.424000000
H    -1.563000000    -5.214000000    -4.446000000
C    -2.229000000    -5.016000000    -2.447000000
O    -3.566000000    -5.290000000    -2.906000000
C    -4.735000000    -4.998000000    -2.269000000
C    -5.164000000    -3.694000000    -2.160000000
H    -4.606000000    -2.848000000    -2.552000000
C    -5.380000000    -6.031000000    -1.562000000
H    -4.883000000    -6.991000000    -1.449000000
C    -6.573000000    -5.747000000    -0.898000000
H    -7.121000000    -6.493000000    -0.328000000
C    -7.009000000    -4.451000000    -0.856000000
H    -7.900000000    -4.188000000    -0.291000000
C    -6.323000000    -3.403000000    -1.430000000
O    -6.797000000    -2.163000000    -1.397000000
C    -6.172000000    -1.047000000    -0.973000000
C    -6.141000000     0.160000000    -1.763000000
H    -6.511000000     0.181000000    -2.786000000
C    -5.397000000     1.251000000    -1.304000000
O    -5.210000000     2.289000000    -2.087000000
C    -4.885000000     3.534000000    -1.584000000
C    -5.675000000     4.128000000    -0.568000000
H    -6.522000000     3.563000000    -0.187000000
C    -5.341000000     5.408000000    -0.065000000
H    -5.908000000     5.871000000     0.738000000
C    -4.267000000     6.067000000    -0.609000000
H    -4.141000000     7.097000000    -0.285000000
C    -3.503000000     5.504000000    -1.659000000
C    -3.837000000     4.219000000    -2.157000000
H    -3.185000000     3.750000000    -2.889000000
C     1.017000000    -0.290000000    -2.405000000
H     1.717000000    -0.972000000    -2.882000000
C     0.786000000    -0.343000000    -0.981000000
H     1.345000000    -1.071000000    -0.399000000
C    -0.138000000     0.449000000    -0.436000000
H    -0.369000000     0.420000000     0.671000000
C    -0.828000000     1.358000000    -1.186000000
H    -1.489000000     2.081000000    -0.715000000
C    -0.522000000     1.582000000    -2.545000000
H    -1.044000000     2.385000000    -3.059000000
C     0.389000000     0.721000000    -3.173000000
C     0.640000000     0.862000000    -4.669000000
O     0.424000000     1.969000000    -5.169000000
O     1.182000000    -0.093000000    -5.196000000
O    -2.026000000    -0.151000000    -9.178000000
H    -1.097000000    -0.381000000    -9.172000000
H    -2.470000000    -0.942000000    -8.871000000
O     2.608000000    -1.163000000    -7.235000000
H     2.093000000    -0.718000000    -6.562000000
H     3.501000000    -0.845000000    -7.102000000
O     1.341000000     4.603000000    -8.262000000
H     1.047000000     4.373000000    -9.143000000
H     2.295000000     4.646000000    -8.332000000
O    -3.712000000    -2.386000000    -8.202000000
H    -3.615000000    -2.146000000    -7.281000000
H    -4.024000000    -3.291000000    -8.182000000
O     4.186000000     2.100000000    -9.633000000
H     3.906000000     1.550000000    -8.902000000
H     3.734000000     1.736000000   -10.394000000
O    -1.128000000     4.998000000    -7.533000000
H    -1.476000000     4.988000000    -8.425000000
H    -0.178000000     4.983000000    -7.647000000
O    -1.856000000     3.201000000    -5.344000000
H    -1.612000000     3.863000000    -5.991000000
H    -1.049000000     2.710000000    -5.188000000
O    -3.482000000    -1.348000000    -5.688000000
H    -2.583000000    -1.453000000    -5.377000000
H    -3.536000000    -0.432000000    -5.960000000
O    -0.800000000    -1.910000000    -5.091000000
H    -0.967000000    -1.801000000    -4.155000000
H    -0.015000000    -1.388000000    -5.257000000
O    -4.328000000     4.981000000    -6.977000000
H    -4.680000000     5.481000000    -6.241000000
H    -3.410000000     4.835000000    -6.750000000
O    -0.330000000    -3.306000000    -7.223000000
H    -0.739000000    -3.000000000    -6.414000000
H     0.226000000    -2.578000000    -7.501000000
O    -3.439000000     0.997000000    -6.891000000
H    -2.996000000     0.905000000    -7.734000000
H    -2.975000000     1.710000000    -6.453000000
O     3.158000000     2.574000000    -5.873000000
H     3.808000000     2.054000000    -5.401000000
H     2.368000000     2.034000000    -5.866000000
O     0.676000000    -0.507000000    -9.149000000
H     1.449000000    -0.904000000    -8.748000000
H     0.620000000     0.362000000    -8.752000000
O    -2.086000000    -1.224000000    -2.670000000
H    -2.763000000    -0.656000000    -3.038000000
H    -1.635000000    -0.675000000    -2.029000000
O     0.106000000     1.860000000    -7.835000000
H     0.313000000     1.997000000    -6.911000000
H    -0.103000000     2.733000000    -8.166000000
O     4.923000000     0.294000000    -7.448000000
H     4.742000000    -0.324000000    -8.156000000
H     5.756000000     0.700000000    -7.690000000
O     3.902000000     4.179000000    -8.059000000
H     4.115000000     3.408000000    -8.584000000
H     3.616000000     3.824000000    -7.217000000
O    -3.186000000     1.034000000    -3.904000000
H    -4.017000000     1.440000000    -3.658000000
H    -2.709000000     1.723000000    -4.366000000
