215
-1485.24706
C     3.947000000    -0.926000000    -2.359000000
H     3.817000000    -1.910000000    -1.918000000
C     4.146000000     0.227000000    -1.616000000
C     4.289000000     1.499000000    -2.187000000
H     4.519000000     2.355000000    -1.559000000
C     4.153000000     0.112000000    -0.082000000
O     4.650000000    -1.132000000     0.384000000
H     3.098000000     0.185000000     0.221000000
O     4.778000000     1.202000000     0.547000000
C     4.055000000     1.820000000     1.562000000
C     3.260000000     2.937000000     1.250000000
H     3.250000000     3.363000000     0.250000000
C     2.511000000     3.521000000     2.181000000
O     1.682000000     4.538000000     1.805000000
C     2.334000000     2.917000000     3.434000000
C     1.159000000     3.305000000     4.349000000
H     1.399000000     2.955000000     5.356000000
C    -0.149000000     2.694000000     3.925000000
C    -0.560000000     1.538000000     4.593000000
H     0.069000000     1.127000000     5.378000000
H     1.054000000     4.388000000     4.445000000
C     3.057000000     1.774000000     3.776000000
H     2.794000000     1.258000000     4.695000000
C     3.907000000     1.193000000     2.804000000
C     4.609000000    -0.155000000     3.191000000
H     4.629000000    -0.185000000     4.283000000
H     5.658000000    -0.246000000     2.900000000
C     3.765000000    -1.342000000     2.600000000
C     2.973000000    -2.080000000     3.448000000
H     2.799000000    -1.801000000     4.484000000
C     3.964000000    -1.827000000     1.331000000
C     3.243000000    -2.930000000     0.888000000
H     3.339000000    -3.305000000    -0.127000000
C     2.359000000    -3.591000000     1.699000000
O     1.596000000    -4.520000000     1.076000000
C     0.225000000    -4.234000000     0.794000000
C    -0.286000000    -4.858000000    -0.495000000
C    -1.590000000    -5.355000000    -0.696000000
H    -2.372000000    -5.290000000     0.056000000
C     0.635000000    -4.969000000    -1.549000000
H     1.588000000    -4.445000000    -1.552000000
O    -0.625000000    -4.752000000     1.847000000
H     0.184000000    -3.139000000     0.696000000
C     2.152000000    -3.157000000     2.992000000
C     1.143000000    -3.804000000     3.976000000
H     1.461000000    -3.696000000     5.015000000
H     1.200000000    -4.887000000     3.846000000
C    -0.197000000    -3.186000000     3.667000000
C    -0.625000000    -2.111000000     4.411000000
H    -0.104000000    -1.769000000     5.301000000
C    -1.033000000    -3.761000000     2.665000000
C    -2.292000000    -3.260000000     2.500000000
H    -2.966000000    -3.632000000     1.732000000
C    -2.711000000    -2.154000000     3.167000000
O    -3.827000000    -1.469000000     2.649000000
C    -3.632000000    -0.216000000     1.957000000
C    -4.482000000    -0.126000000     0.701000000
C    -4.637000000    -1.320000000     0.011000000
H    -4.235000000    -2.277000000     0.335000000
C    -5.016000000     1.080000000     0.272000000
H    -4.947000000     1.943000000     0.929000000
O    -3.753000000     0.963000000     2.745000000
H    -2.611000000    -0.322000000     1.560000000
C    -1.908000000    -1.615000000     4.180000000
C    -2.289000000    -0.357000000     4.932000000
H    -1.834000000    -0.350000000     5.924000000
H    -3.356000000    -0.263000000     5.147000000
C    -1.777000000     0.880000000     4.232000000
C    -2.539000000     1.447000000     3.205000000
C    -2.031000000     2.498000000     2.480000000
H    -2.592000000     2.877000000     1.629000000
C    -0.842000000     3.134000000     2.839000000
O    -0.547000000     4.325000000     2.137000000
C     0.457000000     4.133000000     1.114000000
H     0.555000000     3.086000000     0.793000000
C     0.077000000     5.006000000    -0.094000000
C     1.061000000     5.673000000    -0.845000000
H     2.076000000     5.501000000    -0.495000000
C    -1.233000000     5.041000000    -0.471000000
H    -1.947000000     4.437000000     0.082000000
C    -1.612000000     5.751000000    -1.601000000
O    -2.891000000     5.711000000    -2.066000000
C    -0.677000000     6.497000000    -2.320000000
H    -0.909000000     7.094000000    -3.198000000
C     0.673000000     6.396000000    -1.952000000
O     1.657000000     6.730000000    -2.890000000
C     2.841000000     6.016000000    -3.056000000
C     2.881000000     4.689000000    -3.393000000
H     1.916000000     4.188000000    -3.410000000
C     4.055000000     6.767000000    -3.035000000
H     4.108000000     7.833000000    -2.829000000
C     5.257000000     6.124000000    -3.356000000
H     6.193000000     6.651000000    -3.191000000
C     5.283000000     4.737000000    -3.538000000
H     6.176000000     4.150000000    -3.739000000
C     4.108000000     4.003000000    -3.578000000
O     4.109000000     2.842000000    -4.226000000
C     4.169000000     1.630000000    -3.570000000
C     3.946000000     0.476000000    -4.342000000
H     3.761000000     0.558000000    -5.409000000
C     3.812000000    -0.791000000    -3.761000000
O     3.571000000    -1.802000000    -4.650000000
C     3.662000000    -3.119000000    -4.280000000
C     2.477000000    -3.867000000    -4.131000000
H     1.541000000    -3.366000000    -4.364000000
C     4.890000000    -3.713000000    -3.993000000
H     5.818000000    -3.183000000    -4.194000000
C     4.898000000    -5.011000000    -3.645000000
H     5.855000000    -5.488000000    -3.450000000
C     3.705000000    -5.809000000    -3.554000000
H     3.685000000    -6.878000000    -3.361000000
C     2.470000000    -5.198000000    -3.777000000
O     1.338000000    -5.986000000    -3.670000000
C     0.367000000    -5.684000000    -2.722000000
C    -0.914000000    -6.203000000    -2.873000000
H    -1.146000000    -6.817000000    -3.739000000
C    -1.868000000    -5.943000000    -1.904000000
O    -3.142000000    -6.552000000    -2.176000000
C    -4.310000000    -5.781000000    -1.748000000
C    -4.510000000    -4.452000000    -2.166000000
H    -3.885000000    -3.948000000    -2.899000000
C    -5.154000000    -6.404000000    -0.789000000
H    -4.893000000    -7.410000000    -0.471000000
C    -6.129000000    -5.570000000    -0.122000000
H    -6.566000000    -5.882000000     0.823000000
C    -6.268000000    -4.220000000    -0.473000000
H    -6.951000000    -3.549000000     0.042000000
C    -5.516000000    -3.728000000    -1.536000000
O    -5.743000000    -2.407000000    -1.890000000
C    -5.404000000    -1.284000000    -1.188000000
C    -5.900000000    -0.107000000    -1.695000000
H    -6.503000000    -0.150000000    -2.598000000
C    -5.587000000     1.071000000    -1.018000000
O    -6.103000000     2.245000000    -1.423000000
C    -5.577000000     3.446000000    -1.087000000
C    -6.074000000     4.164000000    -0.020000000
H    -6.831000000     3.668000000     0.583000000
C    -5.531000000     5.409000000     0.360000000
H    -5.952000000     6.059000000     1.123000000
C    -4.464000000     5.876000000    -0.357000000
H    -4.044000000     6.838000000    -0.075000000
C    -3.963000000     5.170000000    -1.432000000
C    -4.480000000     3.927000000    -1.790000000
H    -3.920000000     3.404000000    -2.562000000
C     0.324000000    -0.317000000    -3.232000000
H     0.981000000    -0.799000000    -3.952000000
C     0.059000000    -0.950000000    -2.007000000
H     0.422000000    -1.948000000    -1.773000000
C    -0.661000000    -0.300000000    -1.010000000
H    -0.862000000    -0.742000000    -0.045000000
C    -1.166000000     0.996000000    -1.263000000
H    -1.732000000     1.548000000    -0.516000000
C    -0.901000000     1.611000000    -2.500000000
H    -1.323000000     2.604000000    -2.634000000
C    -0.249000000     0.958000000    -3.542000000
C    -0.087000000     1.556000000    -4.936000000
O    -0.780000000     2.482000000    -5.269000000
O     0.485000000     0.922000000    -5.818000000
O    -1.188000000    -1.540000000    -9.525000000
H    -1.269000000    -0.784000000    -8.944000000
H    -0.709000000    -1.207000000   -10.285000000
O     0.454000000     3.262000000    -7.675000000
H     0.601000000     2.599000000    -8.349000000
H     0.164000000     2.765000000    -6.910000000
O    -3.350000000     5.435000000    -7.346000000
H    -2.538000000     5.397000000    -7.851000000
H    -3.790000000     6.225000000    -7.660000000
O     0.813000000     0.833000000    -9.174000000
H     1.586000000     0.276000000    -9.264000000
H     0.451000000     0.606000000    -8.318000000
O    -3.299000000     2.932000000    -6.024000000
H    -3.145000000     3.742000000    -6.511000000
H    -2.465000000     2.752000000    -5.588000000
O    -0.813000000     7.372000000    -7.321000000
H    -0.787000000     6.629000000    -6.717000000
H    -0.998000000     6.981000000    -8.174000000
O    -1.314000000    -2.125000000    -5.543000000
H    -1.740000000    -2.204000000    -4.689000000
H    -1.182000000    -1.184000000    -5.659000000
O    -4.587000000    -0.026000000    -7.521000000
H    -4.184000000     0.241000000    -6.694000000
H    -5.417000000    -0.427000000    -7.264000000
O    -1.232000000     4.908000000    -8.972000000
H    -1.565000000     4.296000000    -9.628000000
H    -0.580000000     4.405000000    -8.484000000
O     3.374000000     1.622000000    -7.801000000
H     2.849000000     0.833000000    -7.670000000
H     3.921000000     1.423000000    -8.561000000
O    -5.736000000     2.980000000    -4.917000000
H    -6.236000000     3.252000000    -5.687000000
H    -4.820000000     3.063000000    -5.184000000
O    -2.566000000    -1.523000000    -3.246000000
H    -3.330000000    -1.037000000    -3.557000000
H    -2.097000000    -0.902000000    -2.689000000
O    -1.296000000     0.148000000    -7.594000000
H    -0.700000000     0.345000000    -6.871000000
H    -1.924000000     0.871000000    -7.589000000
O     2.169000000    -0.720000000    -6.854000000
H     1.831000000    -1.607000000    -6.731000000
H     1.514000000    -0.155000000    -6.445000000
O     4.933000000     4.121000000    -7.315000000
H     4.460000000     4.754000000    -6.775000000
H     4.337000000     3.376000000    -7.389000000
O     1.722000000     5.553000000    -7.051000000
H     1.323000000     5.513000000    -6.182000000
H     1.550000000     4.692000000    -7.434000000
O    -4.557000000    -0.068000000    -4.613000000
H    -4.766000000     0.863000000    -4.679000000
H    -5.357000000    -0.470000000    -4.274000000
O    -0.957000000     5.257000000    -5.640000000
H    -0.908000000     4.324000000    -5.430000000
H    -1.894000000     5.440000000    -5.699000000
O    -1.535000000    -3.634000000    -7.980000000
H    -1.490000000    -3.292000000    -7.087000000
H    -1.529000000    -2.855000000    -8.536000000
