215
-1456.15381
C     4.171000000    -0.869000000    -1.705000000
H     3.917000000    -1.890000000    -1.430000000
C     4.391000000     0.122000000    -0.803000000
C     4.687000000     1.385000000    -1.225000000
H     4.702000000     2.229000000    -0.541000000
C     3.991000000    -0.129000000     0.623000000
O     4.487000000    -1.411000000     1.042000000
H     2.891000000    -0.146000000     0.618000000
O     4.382000000     0.965000000     1.514000000
C     3.471000000     1.398000000     2.399000000
C     2.937000000     2.675000000     2.198000000
H     3.193000000     3.308000000     1.352000000
C     1.989000000     3.160000000     3.076000000
O     1.388000000     4.317000000     2.674000000
C     1.483000000     2.368000000     4.097000000
C     0.254000000     2.879000000     4.923000000
H     0.339000000     2.534000000     5.956000000
C    -1.068000000     2.455000000     4.294000000
C    -1.640000000     1.267000000     4.676000000
H    -1.166000000     0.754000000     5.509000000
H     0.383000000     3.963000000     4.933000000
C     2.044000000     1.129000000     4.309000000
H     1.617000000     0.551000000     5.124000000
C     3.114000000     0.668000000     3.536000000
C     3.716000000    -0.617000000     3.888000000
H     3.576000000    -0.721000000     4.966000000
H     4.783000000    -0.518000000     3.676000000
C     3.134000000    -1.828000000     3.118000000
C     2.115000000    -2.566000000     3.714000000
H     1.868000000    -2.385000000     4.757000000
C     3.583000000    -2.107000000     1.807000000
C     2.954000000    -3.203000000     1.152000000
H     3.106000000    -3.304000000     0.081000000
C     1.910000000    -3.898000000     1.730000000
O     1.181000000    -4.752000000     0.903000000
C    -0.040000000    -4.184000000     0.290000000
C    -0.275000000    -4.791000000    -1.119000000
C    -1.527000000    -5.080000000    -1.664000000
H    -2.445000000    -5.008000000    -1.087000000
C     0.799000000    -4.937000000    -1.961000000
H     1.770000000    -4.647000000    -1.569000000
O    -1.123000000    -4.707000000     1.060000000
H    -0.111000000    -3.087000000     0.349000000
C     1.496000000    -3.619000000     3.053000000
C     0.342000000    -4.341000000     3.691000000
H     0.514000000    -4.277000000     4.768000000
H     0.273000000    -5.390000000     3.396000000
C    -1.017000000    -3.620000000     3.194000000
C    -1.480000000    -2.551000000     3.993000000
H    -0.892000000    -2.210000000     4.840000000
C    -1.639000000    -3.880000000     1.994000000
C    -2.714000000    -3.125000000     1.600000000
H    -3.178000000    -3.386000000     0.653000000
C    -3.300000000    -2.219000000     2.419000000
O    -4.275000000    -1.446000000     1.791000000
C    -3.880000000    -0.158000000     1.188000000
C    -4.468000000    -0.001000000    -0.218000000
C    -4.680000000    -1.039000000    -1.135000000
H    -4.504000000    -2.057000000    -0.798000000
C    -4.784000000     1.340000000    -0.682000000
H    -4.571000000     2.153000000     0.008000000
O    -4.290000000     0.892000000     2.130000000
H    -2.783000000    -0.118000000     1.115000000
C    -2.634000000    -1.828000000     3.570000000
C    -3.280000000    -0.683000000     4.380000000
H    -2.961000000    -0.958000000     5.388000000
H    -4.369000000    -0.717000000     4.314000000
C    -2.707000000     0.678000000     3.945000000
C    -3.316000000     1.474000000     2.936000000
C    -2.660000000     2.600000000     2.477000000
H    -3.029000000     3.114000000     1.593000000
C    -1.547000000     3.121000000     3.129000000
O    -0.967000000     4.244000000     2.576000000
C     0.238000000     4.139000000     1.860000000
H     0.232000000     3.110000000     1.472000000
C     0.290000000     5.007000000     0.621000000
C     1.453000000     5.649000000     0.175000000
H     2.411000000     5.580000000     0.685000000
C    -0.848000000     5.123000000    -0.101000000
H    -1.640000000     4.461000000     0.242000000
C    -0.960000000     5.918000000    -1.211000000
O    -2.043000000     5.872000000    -2.005000000
C     0.163000000     6.437000000    -1.744000000
H     0.182000000     6.825000000    -2.759000000
C     1.413000000     6.267000000    -1.093000000
O     2.566000000     6.642000000    -1.780000000
C     3.713000000     5.959000000    -1.649000000
C     3.970000000     4.937000000    -2.545000000
H     3.235000000     4.702000000    -3.310000000
C     4.664000000     6.241000000    -0.645000000
H     4.439000000     7.074000000     0.016000000
C     5.886000000     5.526000000    -0.568000000
H     6.598000000     5.750000000     0.223000000
C     6.055000000     4.432000000    -1.384000000
H     6.982000000     3.870000000    -1.304000000
C     5.077000000     4.146000000    -2.339000000
O     5.153000000     2.939000000    -3.075000000
C     4.862000000     1.657000000    -2.612000000
C     4.791000000     0.628000000    -3.493000000
H     5.113000000     0.847000000    -4.508000000
C     4.430000000    -0.661000000    -3.078000000
O     4.378000000    -1.535000000    -4.059000000
C     4.308000000    -2.900000000    -3.879000000
C     3.082000000    -3.595000000    -3.848000000
H     2.118000000    -3.094000000    -3.809000000
C     5.515000000    -3.656000000    -3.872000000
H     6.466000000    -3.142000000    -3.990000000
C     5.462000000    -5.034000000    -3.756000000
H     6.402000000    -5.568000000    -3.641000000
C     4.259000000    -5.682000000    -3.676000000
H     4.263000000    -6.769000000    -3.708000000
C     3.071000000    -4.996000000    -3.816000000
O     1.833000000    -5.716000000    -3.873000000
C     0.730000000    -5.442000000    -3.181000000
C    -0.487000000    -5.731000000    -3.783000000
H    -0.496000000    -6.125000000    -4.796000000
C    -1.650000000    -5.521000000    -3.044000000
O    -2.804000000    -5.818000000    -3.616000000
C    -4.008000000    -5.244000000    -3.186000000
C    -4.187000000    -3.856000000    -3.390000000
H    -3.460000000    -3.285000000    -3.963000000
C    -4.896000000    -5.912000000    -2.365000000
H    -4.596000000    -6.913000000    -2.067000000
C    -6.133000000    -5.307000000    -2.112000000
H    -6.902000000    -5.772000000    -1.500000000
C    -6.331000000    -3.933000000    -2.413000000
H    -7.156000000    -3.309000000    -2.078000000
C    -5.313000000    -3.182000000    -3.025000000
O    -5.450000000    -1.863000000    -3.257000000
C    -5.200000000    -0.804000000    -2.443000000
C    -5.516000000     0.503000000    -2.819000000
H    -6.007000000     0.566000000    -3.787000000
C    -5.352000000     1.577000000    -1.934000000
O    -5.654000000     2.849000000    -2.334000000
C    -5.111000000     4.021000000    -1.826000000
C    -5.796000000     4.735000000    -0.835000000
H    -6.785000000     4.379000000    -0.559000000
C    -5.190000000     5.747000000    -0.109000000
H    -5.738000000     6.154000000     0.737000000
C    -3.915000000     6.158000000    -0.483000000
H    -3.368000000     6.904000000     0.088000000
C    -3.253000000     5.485000000    -1.551000000
C    -3.893000000     4.412000000    -2.223000000
H    -3.316000000     3.788000000    -2.901000000
C    -1.869000000    -0.071000000    -2.405000000
H    -2.712000000    -0.572000000    -2.875000000
C    -1.456000000    -0.515000000    -1.163000000
H    -1.979000000    -1.354000000    -0.712000000
C    -0.441000000     0.113000000    -0.504000000
H    -0.159000000    -0.295000000     0.459000000
C     0.198000000     1.232000000    -1.037000000
H     0.928000000     1.814000000    -0.481000000
C    -0.250000000     1.748000000    -2.268000000
H     0.201000000     2.594000000    -2.782000000
C    -1.334000000     1.156000000    -2.879000000
C    -2.028000000     1.636000000    -4.164000000
O    -1.722000000     2.660000000    -4.780000000
O    -2.914000000     0.958000000    -4.662000000
O    -0.348000000     0.686000000   -10.507000000
H     0.200000000     1.155000000   -11.137000000
H     0.036000000     0.892000000    -9.655000000
O    -6.348000000     0.783000000    -8.426000000
H    -7.087000000     0.264000000    -8.108000000
H    -5.633000000     0.574000000    -7.825000000
O     1.639000000     6.153000000    -5.409000000
H     0.797000000     6.517000000    -5.685000000
H     1.532000000     5.206000000    -5.502000000
O    -3.050000000     1.132000000    -9.905000000
H    -2.170000000     1.314000000   -10.237000000
H    -3.019000000     1.398000000    -8.986000000
O     2.814000000     0.525000000    -5.924000000
H     2.925000000    -0.294000000    -6.407000000
H     2.301000000     0.281000000    -5.153000000
O    -2.103000000     7.561000000    -4.663000000
H    -2.448000000     7.148000000    -3.871000000
H    -2.680000000     7.256000000    -5.363000000
O    -5.553000000     3.029000000    -5.553000000
H    -6.287000000     2.420000000    -5.642000000
H    -5.286000000     2.949000000    -4.637000000
O    -4.645000000     3.910000000    -7.895000000
H    -3.888000000     3.379000000    -8.145000000
H    -5.023000000     3.450000000    -7.146000000
O    -1.567000000    -1.240000000    -5.834000000
H    -2.263000000    -1.664000000    -6.336000000
H    -2.017000000    -0.573000000    -5.317000000
O    -7.268000000    -1.374000000    -6.921000000
H    -6.811000000    -0.765000000    -6.341000000
H    -8.196000000    -1.221000000    -6.745000000
O    -3.454000000    -2.316000000    -7.662000000
H    -3.843000000    -1.801000000    -8.369000000
H    -3.545000000    -3.224000000    -7.949000000
O    -4.973000000    -0.086000000    -6.032000000
H    -4.355000000    -0.648000000    -6.500000000
H    -4.440000000     0.358000000    -5.372000000
O     0.832000000    -0.537000000    -4.138000000
H    -0.016000000    -0.945000000    -4.312000000
H     0.690000000    -0.017000000    -3.348000000
O     0.376000000     1.090000000    -7.871000000
H     1.284000000     1.306000000    -7.659000000
H     0.232000000     0.236000000    -7.462000000
O    -2.489000000     1.955000000    -7.281000000
H    -1.603000000     1.894000000    -7.636000000
H    -2.363000000     2.062000000    -6.338000000
O    -0.057000000     4.797000000    -7.726000000
H    -0.850000000     4.961000000    -7.216000000
H     0.475000000     4.231000000    -7.166000000
O     0.616000000     3.553000000    -5.557000000
H    -0.237000000     3.194000000    -5.311000000
H     1.230000000     2.835000000    -5.407000000
O     0.459000000    -2.842000000    -7.088000000
H     0.305000000    -3.753000000    -6.836000000
H    -0.264000000    -2.358000000    -6.690000000
O    -2.411000000     4.888000000    -6.101000000
H    -2.135000000     4.104000000    -5.626000000
H    -3.336000000     4.736000000    -6.296000000
