215
-1467.83518
C     4.904000000    -1.006000000    -1.922000000
H     5.084000000    -1.984000000    -1.482000000
C     4.461000000     0.122000000    -1.146000000
C     4.049000000     1.250000000    -1.795000000
H     3.702000000     2.050000000    -1.146000000
C     4.094000000    -0.046000000     0.324000000
O     4.775000000    -1.209000000     0.839000000
H     3.009000000    -0.047000000     0.505000000
O     4.562000000     1.009000000     1.152000000
C     3.623000000     1.424000000     2.079000000
C     2.887000000     2.567000000     1.888000000
H     3.121000000     3.218000000     1.050000000
C     1.899000000     2.925000000     2.807000000
O     1.314000000     4.164000000     2.555000000
C     1.598000000     2.258000000     3.976000000
C     0.552000000     2.683000000     5.011000000
H     0.572000000     2.271000000     6.022000000
C    -0.749000000     2.249000000     4.417000000
C    -1.175000000     1.005000000     4.829000000
H    -0.620000000     0.438000000     5.572000000
H     0.524000000     3.756000000     5.208000000
C     2.424000000     1.155000000     4.189000000
H     2.226000000     0.576000000     5.087000000
C     3.420000000     0.709000000     3.258000000
C     4.199000000    -0.559000000     3.604000000
H     4.313000000    -0.767000000     4.670000000
H     5.246000000    -0.396000000     3.342000000
C     3.620000000    -1.751000000     2.981000000
C     2.646000000    -2.503000000     3.579000000
H     2.309000000    -2.321000000     4.596000000
C     3.941000000    -1.958000000     1.621000000
C     3.327000000    -3.016000000     0.956000000
H     3.521000000    -3.170000000    -0.103000000
C     2.364000000    -3.836000000     1.523000000
O     1.659000000    -4.665000000     0.672000000
C     0.354000000    -4.273000000     0.203000000
C     0.043000000    -4.557000000    -1.269000000
C    -1.277000000    -4.479000000    -1.818000000
H    -2.156000000    -4.475000000    -1.179000000
C     1.133000000    -4.766000000    -2.128000000
H     2.105000000    -4.968000000    -1.685000000
O    -0.694000000    -4.853000000     1.018000000
H     0.332000000    -3.182000000     0.341000000
C     2.033000000    -3.514000000     2.872000000
C     0.865000000    -4.252000000     3.457000000
H     1.018000000    -4.419000000     4.525000000
H     0.957000000    -5.295000000     3.148000000
C    -0.511000000    -3.653000000     3.147000000
C    -1.023000000    -2.703000000     4.015000000
H    -0.423000000    -2.363000000     4.855000000
C    -1.214000000    -4.009000000     1.951000000
C    -2.379000000    -3.302000000     1.667000000
H    -2.976000000    -3.556000000     0.795000000
C    -2.881000000    -2.337000000     2.550000000
O    -4.023000000    -1.674000000     2.085000000
C    -3.823000000    -0.306000000     1.550000000
C    -4.772000000    -0.003000000     0.363000000
C    -5.505000000    -1.035000000    -0.349000000
H    -5.640000000    -2.039000000     0.046000000
C    -4.652000000     1.223000000    -0.281000000
H    -4.003000000     1.932000000     0.228000000
O    -4.048000000     0.697000000     2.559000000
H    -2.768000000    -0.165000000     1.273000000
C    -2.223000000    -2.042000000     3.737000000
C    -2.704000000    -0.891000000     4.656000000
H    -2.378000000    -1.095000000     5.678000000
H    -3.787000000    -0.904000000     4.797000000
C    -2.296000000     0.496000000     4.239000000
C    -2.971000000     1.196000000     3.258000000
C    -2.575000000     2.454000000     2.852000000
H    -3.091000000     3.001000000     2.067000000
C    -1.444000000     3.006000000     3.468000000
O    -0.991000000     4.208000000     2.974000000
C     0.017000000     4.091000000     1.940000000
H    -0.026000000     3.075000000     1.520000000
C    -0.154000000     5.041000000     0.726000000
C     0.942000000     5.387000000    -0.098000000
H     1.909000000     4.976000000     0.178000000
C    -1.418000000     5.577000000     0.436000000
H    -2.268000000     5.406000000     1.091000000
C    -1.592000000     6.404000000    -0.706000000
O    -2.864000000     6.778000000    -1.025000000
C    -0.537000000     6.602000000    -1.592000000
H    -0.713000000     7.181000000    -2.495000000
C     0.731000000     6.146000000    -1.232000000
O     1.718000000     6.388000000    -2.121000000
C     2.873000000     5.693000000    -2.104000000
C     3.051000000     4.613000000    -2.942000000
H     2.358000000     4.303000000    -3.720000000
C     3.915000000     6.025000000    -1.169000000
H     3.794000000     6.817000000    -0.435000000
C     5.150000000     5.377000000    -1.090000000
H     5.914000000     5.850000000    -0.479000000
C     5.314000000     4.304000000    -1.967000000
H     6.169000000     3.634000000    -2.007000000
C     4.309000000     3.901000000    -2.866000000
O     4.427000000     2.691000000    -3.585000000
C     4.440000000     1.421000000    -3.088000000
C     5.003000000     0.417000000    -3.848000000
H     5.326000000     0.569000000    -4.875000000
C     5.183000000    -0.894000000    -3.277000000
O     5.627000000    -1.969000000    -4.029000000
C     5.102000000    -3.245000000    -3.877000000
C     3.741000000    -3.465000000    -4.183000000
H     3.108000000    -2.626000000    -4.461000000
C     5.862000000    -4.308000000    -3.424000000
H     6.837000000    -4.128000000    -2.979000000
C     5.376000000    -5.621000000    -3.511000000
H     6.004000000    -6.474000000    -3.266000000
C     4.002000000    -5.834000000    -3.798000000
H     3.629000000    -6.855000000    -3.814000000
C     3.218000000    -4.752000000    -4.158000000
O     1.899000000    -4.908000000    -4.451000000
C     0.892000000    -4.884000000    -3.505000000
C    -0.408000000    -4.628000000    -4.060000000
H    -0.434000000    -4.612000000    -5.146000000
C    -1.499000000    -4.538000000    -3.206000000
O    -2.663000000    -4.234000000    -3.739000000
C    -3.955000000    -4.221000000    -3.114000000
C    -4.650000000    -3.008000000    -3.098000000
H    -4.115000000    -2.106000000    -3.383000000
C    -4.579000000    -5.395000000    -2.840000000
H    -3.940000000    -6.270000000    -2.751000000
C    -5.903000000    -5.490000000    -2.374000000
H    -6.335000000    -6.454000000    -2.115000000
C    -6.604000000    -4.270000000    -2.290000000
H    -7.576000000    -4.272000000    -1.804000000
C    -5.968000000    -3.019000000    -2.602000000
O    -6.609000000    -1.801000000    -2.388000000
C    -6.056000000    -0.784000000    -1.616000000
C    -5.948000000     0.454000000    -2.216000000
H    -6.254000000     0.702000000    -3.229000000
C    -5.248000000     1.459000000    -1.530000000
O    -5.025000000     2.670000000    -2.191000000
C    -4.975000000     3.874000000    -1.570000000
C    -6.034000000     4.234000000    -0.706000000
H    -6.897000000     3.575000000    -0.648000000
C    -5.982000000     5.393000000     0.086000000
H    -6.768000000     5.640000000     0.794000000
C    -4.954000000     6.243000000     0.012000000
H    -4.935000000     7.178000000     0.566000000
C    -3.928000000     5.946000000    -0.926000000
C    -3.937000000     4.822000000    -1.703000000
H    -3.088000000     4.561000000    -2.329000000
C    -2.173000000     0.172000000    -2.377000000
H    -3.140000000    -0.161000000    -2.745000000
C    -1.662000000    -0.528000000    -1.292000000
H    -2.222000000    -1.374000000    -0.900000000
C    -0.439000000    -0.144000000    -0.756000000
H    -0.017000000    -0.685000000     0.100000000
C     0.127000000     1.031000000    -1.238000000
H     0.985000000     1.404000000    -0.685000000
C    -0.335000000     1.792000000    -2.256000000
H     0.220000000     2.639000000    -2.651000000
C    -1.508000000     1.319000000    -2.892000000
C    -2.002000000     2.064000000    -4.126000000
O    -1.651000000     3.215000000    -4.343000000
O    -2.755000000     1.492000000    -4.898000000
O     2.530000000     5.498000000    -6.004000000
H     2.081000000     6.251000000    -6.389000000
H     1.897000000     4.783000000    -6.071000000
O    -3.396000000     5.297000000    -9.069000000
H    -3.310000000     6.171000000    -8.689000000
H    -3.040000000     4.710000000    -8.402000000
O     2.899000000     0.127000000    -7.308000000
H     2.222000000    -0.026000000    -6.649000000
H     2.492000000     0.726000000    -7.934000000
O    -2.483000000     7.355000000    -7.498000000
H    -2.506000000     6.789000000    -6.727000000
H    -3.154000000     8.016000000    -7.331000000
O    -5.325000000     5.454000000    -6.101000000
H    -5.789000000     6.238000000    -6.396000000
H    -5.995000000     4.931000000    -5.661000000
O    -5.512000000     2.282000000    -5.639000000
H    -4.710000000     1.982000000    -5.210000000
H    -5.992000000     2.744000000    -4.951000000
O     1.771000000     0.636000000    -4.696000000
H     1.299000000    -0.142000000    -4.398000000
H     2.600000000     0.610000000    -4.217000000
O     0.849000000    -1.568000000    -3.510000000
H     0.066000000    -1.379000000    -2.994000000
H     0.870000000    -2.523000000    -3.573000000
O    -2.525000000     8.021000000    -4.438000000
H    -3.416000000     7.739000000    -4.233000000
H    -2.116000000     7.253000000    -4.835000000
O    -2.186000000     0.905000000   -10.377000000
H    -2.563000000     0.059000000   -10.622000000
H    -2.377000000     0.990000000    -9.443000000
O    -1.091000000     0.762000000    -7.501000000
H    -0.303000000     0.909000000    -8.024000000
H    -0.991000000     1.344000000    -6.748000000
O    -7.398000000     4.088000000    -4.237000000
H    -7.928000000     3.574000000    -3.627000000
H    -8.034000000     4.475000000    -4.839000000
O    -2.864000000    -0.828000000    -6.256000000
H    -2.875000000    -0.224000000    -5.512000000
H    -2.340000000    -0.380000000    -6.920000000
O    -4.434000000    -3.012000000    -6.370000000
H    -4.742000000    -2.173000000    -6.713000000
H    -3.637000000    -2.793000000    -5.886000000
O     0.704000000    -2.464000000    -7.212000000
H     0.431000000    -2.075000000    -6.381000000
H     0.218000000    -1.975000000    -7.877000000
O     0.926000000     3.247000000    -5.591000000
H     0.069000000     3.412000000    -5.199000000
H     1.190000000     2.396000000    -5.241000000
O    -3.058000000     3.198000000    -7.106000000
H    -3.980000000     3.445000000    -7.183000000
H    -3.037000000     2.573000000    -6.382000000
O    -0.273000000     3.539000000    -8.176000000
H     0.279000000     3.559000000    -7.395000000
H    -1.149000000     3.340000000    -7.845000000
O    -2.716000000     5.597000000    -5.331000000
H    -2.352000000     4.745000000    -5.091000000
H    -3.655000000     5.510000000    -5.171000000
