215
-1488.40453
C     4.678000000    -0.776000000    -2.213000000
H     4.436000000    -1.780000000    -1.875000000
C     4.570000000     0.188000000    -1.140000000
C     4.837000000     1.485000000    -1.510000000
H     4.846000000     2.215000000    -0.704000000
C     4.176000000    -0.187000000     0.310000000
O     4.576000000    -1.556000000     0.596000000
H     3.081000000    -0.141000000     0.408000000
O     4.895000000     0.565000000     1.327000000
C     4.080000000     0.939000000     2.350000000
C     3.484000000     2.192000000     2.286000000
H     3.846000000     2.883000000     1.528000000
C     2.473000000     2.522000000     3.211000000
O     1.834000000     3.748000000     3.070000000
C     2.110000000     1.642000000     4.268000000
C     0.923000000     2.074000000     5.177000000
H     1.079000000     1.481000000     6.080000000
C    -0.415000000     1.774000000     4.606000000
C    -1.100000000     0.636000000     4.973000000
H    -0.597000000    -0.026000000     5.674000000
H     1.042000000     3.124000000     5.454000000
C     2.712000000     0.414000000     4.342000000
H     2.412000000    -0.312000000     5.092000000
C     3.666000000     0.015000000     3.361000000
C     4.294000000    -1.342000000     3.502000000
H     4.357000000    -1.739000000     4.517000000
H     5.286000000    -1.268000000     3.051000000
C     3.430000000    -2.264000000     2.637000000
C     2.317000000    -2.893000000     3.210000000
H     2.046000000    -2.737000000     4.251000000
C     3.650000000    -2.327000000     1.242000000
C     2.921000000    -3.266000000     0.483000000
H     3.184000000    -3.411000000    -0.561000000
C     1.881000000    -3.904000000     0.998000000
O     1.049000000    -4.494000000     0.108000000
C    -0.239000000    -3.929000000    -0.290000000
C    -0.565000000    -4.145000000    -1.727000000
C    -1.878000000    -4.326000000    -2.148000000
H    -2.636000000    -4.419000000    -1.375000000
C     0.430000000    -3.995000000    -2.717000000
H     1.419000000    -3.741000000    -2.345000000
O    -1.243000000    -4.508000000     0.562000000
H    -0.232000000    -2.881000000     0.044000000
C     1.528000000    -3.751000000     2.374000000
C     0.363000000    -4.555000000     2.989000000
H     0.440000000    -4.804000000     4.049000000
H     0.226000000    -5.508000000     2.473000000
C    -0.942000000    -3.810000000     2.853000000
C    -1.331000000    -2.921000000     3.847000000
H    -0.688000000    -2.833000000     4.719000000
C    -1.710000000    -3.944000000     1.686000000
C    -2.943000000    -3.207000000     1.574000000
H    -3.494000000    -3.279000000     0.639000000
C    -3.275000000    -2.355000000     2.599000000
O    -4.319000000    -1.495000000     2.318000000
C    -3.860000000    -0.331000000     1.627000000
C    -4.575000000     0.028000000     0.336000000
C    -5.386000000    -0.961000000    -0.323000000
H    -5.515000000    -1.947000000     0.116000000
C    -4.339000000     1.244000000    -0.245000000
H    -3.636000000     1.901000000     0.260000000
O    -3.933000000     0.789000000     2.557000000
H    -2.793000000    -0.527000000     1.442000000
C    -2.463000000    -2.157000000     3.724000000
C    -2.862000000    -1.085000000     4.717000000
H    -2.614000000    -1.399000000     5.733000000
H    -3.943000000    -0.941000000     4.669000000
C    -2.334000000     0.292000000     4.394000000
C    -2.811000000     1.034000000     3.292000000
C    -2.164000000     2.221000000     2.950000000
H    -2.540000000     2.821000000     2.126000000
C    -1.026000000     2.613000000     3.661000000
O    -0.441000000     3.820000000     3.229000000
C     0.643000000     3.696000000     2.349000000
H     0.537000000     2.695000000     1.903000000
C     0.512000000     4.646000000     1.191000000
C     1.636000000     5.105000000     0.478000000
H     2.564000000     4.648000000     0.812000000
C    -0.736000000     5.034000000     0.753000000
H    -1.563000000     4.769000000     1.408000000
C    -0.873000000     5.944000000    -0.340000000
O    -2.124000000     6.460000000    -0.777000000
C     0.258000000     6.405000000    -0.965000000
H     0.103000000     7.106000000    -1.782000000
C     1.533000000     5.994000000    -0.615000000
O     2.583000000     6.608000000    -1.288000000
C     3.847000000     5.997000000    -1.311000000
C     4.000000000     4.962000000    -2.289000000
H     3.202000000     4.656000000    -2.960000000
C     4.865000000     6.285000000    -0.377000000
H     4.638000000     7.053000000     0.358000000
C     6.025000000     5.544000000    -0.394000000
H     6.866000000     5.636000000     0.289000000
C     6.198000000     4.603000000    -1.421000000
H     7.012000000     3.883000000    -1.418000000
C     5.196000000     4.242000000    -2.280000000
O     5.404000000     3.156000000    -3.151000000
C     5.119000000     1.851000000    -2.816000000
C     5.121000000     0.918000000    -3.838000000
H     5.255000000     1.218000000    -4.874000000
C     4.875000000    -0.393000000    -3.558000000
O     4.926000000    -1.241000000    -4.615000000
C     4.385000000    -2.497000000    -4.565000000
C     3.071000000    -2.668000000    -4.921000000
H     2.621000000    -1.760000000    -5.314000000
C     5.056000000    -3.501000000    -3.880000000
H     6.122000000    -3.380000000    -3.702000000
C     4.366000000    -4.700000000    -3.598000000
H     4.838000000    -5.504000000    -3.040000000
C     3.077000000    -4.903000000    -3.975000000
H     2.591000000    -5.846000000    -3.738000000
C     2.416000000    -3.926000000    -4.740000000
O     1.113000000    -4.012000000    -5.087000000
C     0.145000000    -4.153000000    -4.078000000
C    -1.168000000    -4.357000000    -4.442000000
H    -1.442000000    -4.493000000    -5.485000000
C    -2.203000000    -4.443000000    -3.527000000
O    -3.463000000    -4.629000000    -3.921000000
C    -4.585000000    -4.377000000    -3.228000000
C    -4.924000000    -3.072000000    -2.897000000
H    -4.265000000    -2.260000000    -3.195000000
C    -5.557000000    -5.391000000    -3.108000000
H    -5.354000000    -6.388000000    -3.489000000
C    -6.824000000    -5.177000000    -2.528000000
H    -7.509000000    -6.002000000    -2.350000000
C    -7.185000000    -3.855000000    -2.368000000
H    -8.170000000    -3.647000000    -1.958000000
C    -6.200000000    -2.867000000    -2.399000000
O    -6.694000000    -1.632000000    -2.146000000
C    -6.002000000    -0.670000000    -1.507000000
C    -5.907000000     0.603000000    -2.070000000
H    -6.356000000     0.780000000    -3.043000000
C    -4.997000000     1.476000000    -1.484000000
O    -4.702000000     2.621000000    -2.215000000
C    -4.666000000     3.834000000    -1.540000000
C    -5.792000000     4.282000000    -0.878000000
H    -6.700000000     3.684000000    -0.864000000
C    -5.655000000     5.414000000    -0.121000000
H    -6.506000000     5.626000000     0.521000000
C    -4.483000000     6.112000000    -0.044000000
H    -4.396000000     6.986000000     0.596000000
C    -3.328000000     5.789000000    -0.806000000
C    -3.477000000     4.629000000    -1.591000000
H    -2.634000000     4.290000000    -2.187000000
C    -1.863000000     0.018000000    -1.702000000
H    -2.580000000    -0.388000000    -2.412000000
C    -1.542000000    -0.730000000    -0.576000000
H    -1.986000000    -1.704000000    -0.391000000
C    -0.561000000    -0.348000000     0.347000000
H    -0.423000000    -1.015000000     1.181000000
C     0.247000000     0.777000000     0.072000000
H     1.130000000     1.025000000     0.656000000
C    -0.168000000     1.630000000    -1.025000000
H     0.257000000     2.623000000    -1.144000000
C    -1.203000000     1.214000000    -1.898000000
C    -1.582000000     2.022000000    -3.171000000
O    -0.957000000     2.982000000    -3.472000000
O    -2.371000000     1.580000000    -4.003000000
O     3.218000000     3.186000000    -6.272000000
H     3.997000000     3.705000000    -6.073000000
H     2.829000000     3.000000000    -5.418000000
O     0.641000000     3.491000000    -8.090000000
H     0.126000000     4.190000000    -7.686000000
H     1.409000000     3.402000000    -7.526000000
O    -1.157000000     4.766000000    -6.536000000
H    -0.670000000     4.768000000    -5.712000000
H    -1.858000000     4.129000000    -6.398000000
O     3.572000000     0.707000000    -7.371000000
H     2.687000000     0.347000000    -7.427000000
H     3.452000000     1.582000000    -7.001000000
O     0.930000000     7.049000000    -6.594000000
H     1.880000000     7.047000000    -6.478000000
H     0.607000000     6.445000000    -5.925000000
O    -5.625000000     3.336000000    -4.888000000
H    -6.424000000     3.641000000    -4.458000000
H    -5.079000000     3.008000000    -4.174000000
O     1.036000000    -0.557000000    -3.432000000
H     0.296000000    -0.427000000    -4.026000000
H     0.641000000    -0.901000000    -2.630000000
O    -0.979000000    -0.766000000    -5.349000000
H    -1.548000000    -1.485000000    -5.625000000
H    -1.566000000    -0.015000000    -5.262000000
O    -7.139000000     2.771000000    -7.430000000
H    -6.657000000     3.182000000    -6.712000000
H    -7.794000000     3.422000000    -7.682000000
O    -0.626000000    -0.020000000    -9.069000000
H    -0.230000000     0.583000000    -9.698000000
H    -1.384000000     0.454000000    -8.727000000
O    -0.987000000     6.582000000    -8.643000000
H    -0.978000000     6.300000000    -7.728000000
H    -0.860000000     7.529000000    -8.603000000
O    -4.462000000    -0.513000000    -5.001000000
H    -3.902000000     0.177000000    -4.644000000
H    -5.159000000    -0.043000000    -5.459000000
O    -5.211000000     0.906000000    -7.312000000
H    -5.760000000     1.678000000    -7.448000000
H    -4.463000000     1.039000000    -7.894000000
O    -5.357000000    -2.970000000    -5.877000000
H    -4.891000000    -3.429000000    -5.178000000
H    -5.191000000    -2.043000000    -5.706000000
O     1.330000000    -0.946000000    -7.308000000
H     0.857000000    -1.341000000    -6.576000000
H     0.660000000    -0.470000000    -7.798000000
O     1.699000000     2.307000000    -4.125000000
H     0.829000000     2.675000000    -3.974000000
H     1.594000000     1.369000000    -3.965000000
O    -3.173000000     3.033000000    -6.039000000
H    -4.071000000     3.034000000    -5.707000000
H    -2.677000000     2.544000000    -5.383000000
O    -2.855000000     1.946000000    -8.544000000
H    -2.662000000     2.689000000    -9.115000000
H    -2.933000000     2.329000000    -7.671000000
O     0.240000000     5.059000000    -4.240000000
H    -0.233000000     4.261000000    -4.003000000
H     0.881000000     5.174000000    -3.539000000
