215
-1462.78706
C    -2.873000000     0.050000000    -4.253000000
H    -2.601000000    -0.995000000    -4.126000000
C    -1.790000000     0.820000000    -4.558000000
C    -1.825000000     2.207000000    -4.799000000
H    -0.987000000     2.849000000    -5.057000000
C    -0.405000000     0.293000000    -4.396000000
O    -0.303000000    -0.966000000    -5.019000000
H    -0.299000000     0.144000000    -3.311000000
O     0.569000000     1.175000000    -4.883000000
C     1.670000000     1.267000000    -4.204000000
C     1.763000000     2.464000000    -3.435000000
H     0.866000000     3.075000000    -3.361000000
C     2.821000000     2.600000000    -2.557000000
O     2.691000000     3.629000000    -1.622000000
C     3.858000000     1.672000000    -2.507000000
C     4.937000000     1.725000000    -1.464000000
H     5.753000000     1.190000000    -1.953000000
C     4.613000000     1.171000000    -0.051000000
C     4.911000000    -0.145000000     0.234000000
H     5.490000000    -0.716000000    -0.488000000
H     5.255000000     2.762000000    -1.335000000
C     3.793000000     0.581000000    -3.406000000
H     4.486000000    -0.241000000    -3.248000000
C     2.701000000     0.387000000    -4.277000000
C     2.715000000    -0.943000000    -5.013000000
H     3.657000000    -1.442000000    -5.247000000
H     2.293000000    -0.827000000    -6.014000000
C     1.839000000    -1.921000000    -4.188000000
C     2.427000000    -2.892000000    -3.384000000
H     3.511000000    -2.903000000    -3.300000000
C     0.447000000    -1.881000000    -4.319000000
C    -0.357000000    -2.809000000    -3.588000000
H    -1.432000000    -2.852000000    -3.740000000
C     0.274000000    -3.619000000    -2.672000000
O    -0.565000000    -4.339000000    -1.861000000
C    -0.551000000    -4.046000000    -0.399000000
C    -2.001000000    -4.020000000     0.149000000
C    -2.353000000    -3.934000000     1.493000000
H    -1.542000000    -3.884000000     2.214000000
C    -3.124000000    -4.112000000    -0.758000000
H    -3.064000000    -4.083000000    -1.843000000
O     0.272000000    -5.026000000     0.183000000
H    -0.068000000    -3.064000000    -0.289000000
C     1.633000000    -3.783000000    -2.635000000
C     2.392000000    -4.793000000    -1.752000000
H     3.412000000    -4.862000000    -2.137000000
H     1.942000000    -5.786000000    -1.811000000
C     2.457000000    -4.433000000    -0.264000000
C     3.570000000    -3.730000000     0.205000000
H     4.356000000    -3.579000000    -0.530000000
C     1.433000000    -4.616000000     0.686000000
C     1.497000000    -3.996000000     1.969000000
H     0.664000000    -4.055000000     2.664000000
C     2.515000000    -3.127000000     2.277000000
O     2.481000000    -2.574000000     3.502000000
C     2.259000000    -1.100000000     3.562000000
C     1.327000000    -0.656000000     4.696000000
C     0.341000000    -1.520000000     5.125000000
H     0.147000000    -2.412000000     4.534000000
C     1.596000000     0.514000000     5.269000000
H     2.293000000     1.263000000     4.900000000
O     3.521000000    -0.424000000     3.588000000
H     1.804000000    -0.771000000     2.617000000
C     3.609000000    -3.033000000     1.437000000
C     4.813000000    -2.170000000     1.724000000
H     5.626000000    -2.538000000     1.096000000
H     5.325000000    -2.295000000     2.681000000
C     4.519000000    -0.692000000     1.419000000
C     3.992000000     0.137000000     2.414000000
C     3.621000000     1.462000000     2.167000000
H     3.162000000     2.080000000     2.934000000
C     3.902000000     1.934000000     0.879000000
O     3.486000000     3.177000000     0.485000000
C     2.287000000     3.268000000    -0.317000000
H     1.769000000     2.298000000    -0.286000000
C     1.331000000     4.265000000     0.160000000
C     0.487000000     4.892000000    -0.735000000
H     0.597000000     4.802000000    -1.813000000
C     1.145000000     4.410000000     1.516000000
H     1.730000000     3.895000000     2.274000000
C     0.164000000     5.311000000     2.010000000
O    -0.090000000     5.523000000     3.355000000
C    -0.740000000     5.925000000     1.104000000
H    -1.594000000     6.567000000     1.305000000
C    -0.538000000     5.741000000    -0.247000000
O    -1.488000000     6.340000000    -1.059000000
C    -1.470000000     6.094000000    -2.366000000
C    -2.432000000     5.188000000    -2.866000000
H    -3.127000000     4.630000000    -2.243000000
C    -0.879000000     7.008000000    -3.264000000
H    -0.218000000     7.777000000    -2.873000000
C    -0.859000000     6.752000000    -4.631000000
H    -0.403000000     7.449000000    -5.329000000
C    -1.693000000     5.765000000    -5.168000000
H    -1.678000000     5.701000000    -6.253000000
C    -2.411000000     4.997000000    -4.269000000
O    -3.244000000     4.118000000    -4.778000000
C    -3.076000000     2.804000000    -4.645000000
C    -4.202000000     2.022000000    -4.348000000
H    -5.177000000     2.483000000    -4.216000000
C    -4.100000000     0.661000000    -4.202000000
O    -5.200000000    -0.089000000    -3.767000000
C    -5.199000000    -1.461000000    -3.681000000
C    -5.222000000    -2.082000000    -2.430000000
H    -5.064000000    -1.565000000    -1.487000000
C    -5.375000000    -2.125000000    -4.911000000
H    -5.335000000    -1.550000000    -5.833000000
C    -5.610000000    -3.504000000    -4.865000000
H    -5.516000000    -4.026000000    -5.814000000
C    -5.736000000    -4.175000000    -3.631000000
H    -5.959000000    -5.239000000    -3.665000000
C    -5.479000000    -3.476000000    -2.474000000
O    -5.523000000    -4.155000000    -1.277000000
C    -4.502000000    -4.103000000    -0.358000000
C    -4.762000000    -4.095000000     0.995000000
H    -5.821000000    -4.137000000     1.236000000
C    -3.709000000    -4.064000000     1.948000000
O    -4.149000000    -3.970000000     3.300000000
C    -3.383000000    -4.105000000     4.385000000
C    -2.773000000    -2.950000000     4.948000000
H    -2.933000000    -2.022000000     4.405000000
C    -3.113000000    -5.343000000     4.982000000
H    -3.359000000    -6.281000000     4.492000000
C    -2.418000000    -5.470000000     6.197000000
H    -2.227000000    -6.420000000     6.691000000
C    -1.914000000    -4.268000000     6.749000000
H    -1.574000000    -4.335000000     7.780000000
C    -2.064000000    -3.002000000     6.122000000
O    -1.558000000    -1.832000000     6.704000000
C    -0.476000000    -1.146000000     6.241000000
C    -0.287000000     0.138000000     6.758000000
H    -0.889000000     0.434000000     7.614000000
C     0.749000000     0.952000000     6.266000000
O     0.799000000     2.303000000     6.737000000
C     1.161000000     3.410000000     6.073000000
C     1.955000000     4.344000000     6.721000000
H     2.404000000     4.125000000     7.686000000
C     2.132000000     5.638000000     6.219000000
H     2.861000000     6.304000000     6.674000000
C     1.436000000     5.906000000     5.035000000
H     1.517000000     6.892000000     4.586000000
C     0.633000000     5.007000000     4.429000000
C     0.473000000     3.743000000     4.897000000
H    -0.225000000     3.051000000     4.434000000
C    -1.891000000     0.008000000     1.240000000
H    -2.631000000    -0.268000000     1.986000000
C    -0.723000000    -0.727000000     1.082000000
H    -0.433000000    -1.578000000     1.694000000
C     0.267000000    -0.238000000     0.142000000
H     1.183000000    -0.697000000    -0.083000000
C    -0.160000000     0.722000000    -0.727000000
H     0.510000000     1.003000000    -1.536000000
C    -1.371000000     1.416000000    -0.554000000
H    -1.548000000     2.147000000    -1.339000000
C    -2.255000000     1.117000000     0.451000000
C    -3.511000000     1.929000000     0.672000000
O    -3.456000000     3.119000000     0.305000000
O    -4.463000000     1.412000000     1.246000000
O    -6.534000000    -0.094000000     0.402000000
H    -7.270000000     0.455000000     0.672000000
H    -5.769000000     0.315000000     0.807000000
O    -8.471000000     0.240000000     4.514000000
H    -8.942000000     0.731000000     3.840000000
H    -7.809000000    -0.255000000     4.032000000
O    -8.308000000    -1.622000000    -0.779000000
H    -7.831000000    -2.143000000    -1.424000000
H    -7.650000000    -1.029000000    -0.416000000
O    -7.315000000     3.760000000     5.185000000
H    -8.172000000     4.001000000     4.833000000
H    -6.840000000     3.403000000     4.435000000
O    -7.962000000     2.539000000    -1.691000000
H    -7.305000000     2.983000000    -2.226000000
H    -8.649000000     2.292000000    -2.311000000
O    -6.418000000     0.887000000     6.663000000
H    -5.660000000     1.008000000     6.092000000
H    -7.172000000     1.031000000     6.092000000
O    -3.915000000     7.349000000     3.534000000
H    -4.165000000     7.029000000     2.667000000
H    -3.519000000     8.204000000     3.369000000
O    -6.561000000    -1.423000000     3.185000000
H    -5.683000000    -1.092000000     3.372000000
H    -6.500000000    -1.778000000     2.298000000
O    -4.529000000     5.479000000     1.272000000
H    -4.772000000     6.020000000     0.521000000
H    -4.089000000     4.720000000     0.888000000
O    -4.334000000     0.001000000     3.681000000
H    -3.996000000     0.555000000     4.385000000
H    -4.240000000     0.534000000     2.891000000
O   -10.221000000     1.320000000     2.662000000
H   -10.130000000     2.100000000     3.209000000
H    -9.709000000     1.517000000     1.877000000
O    -8.343000000     2.191000000     0.933000000
H    -8.262000000     2.225000000    -0.020000000
H    -7.811000000     2.923000000     1.245000000
O    -8.024000000     6.542000000    -1.306000000
H    -8.039000000     6.577000000    -0.349000000
H    -8.093000000     7.456000000    -1.580000000
O    -5.939000000     5.538000000    -3.050000000
H    -5.581000000     4.782000000    -2.584000000
H    -6.683000000     5.818000000    -2.517000000
O    -2.635000000     3.456000000     3.231000000
H    -2.209000000     4.291000000     3.420000000
H    -2.749000000     3.454000000     2.280000000
O    -3.913000000     2.201000000     5.382000000
H    -3.564000000     2.576000000     4.573000000
H    -4.154000000     2.960000000     5.913000000
O    -5.222000000     3.170000000    -1.650000000
H    -4.644000000     3.198000000    -0.888000000
H    -5.073000000     2.305000000    -2.032000000
O    -4.903000000     7.512000000    -0.588000000
H    -4.651000000     7.369000000    -1.500000000
H    -4.566000000     8.383000000    -0.379000000
O    -6.287000000     3.379000000     2.559000000
H    -5.787000000     2.672000000     2.150000000
H    -5.761000000     4.164000000     2.406000000
