215
-1481.22077
C     4.542000000    -1.345000000    -2.694000000
H     4.344000000    -2.378000000    -2.423000000
C     4.614000000    -0.371000000    -1.666000000
C     4.716000000     0.982000000    -2.075000000
H     4.820000000     1.730000000    -1.293000000
C     4.317000000    -0.738000000    -0.244000000
O     4.789000000    -2.065000000    -0.013000000
H     3.217000000    -0.713000000    -0.231000000
O     4.954000000     0.118000000     0.666000000
C     4.371000000     0.520000000     1.809000000
C     3.818000000     1.797000000     1.784000000
H     3.877000000     2.443000000     0.912000000
C     2.847000000     2.115000000     2.661000000
O     2.293000000     3.395000000     2.512000000
C     2.593000000     1.306000000     3.783000000
C     1.710000000     1.818000000     4.887000000
H     2.010000000     1.318000000     5.810000000
C     0.188000000     1.728000000     4.619000000
C    -0.473000000     0.572000000     5.119000000
H     0.098000000    -0.207000000     5.617000000
H     2.001000000     2.847000000     5.105000000
C     3.312000000     0.100000000     3.915000000
H     3.126000000    -0.605000000     4.721000000
C     4.086000000    -0.337000000     2.874000000
C     4.647000000    -1.740000000     2.878000000
H     4.590000000    -2.194000000     3.870000000
H     5.675000000    -1.677000000     2.514000000
C     3.712000000    -2.642000000     2.093000000
C     2.623000000    -3.275000000     2.748000000
H     2.634000000    -3.058000000     3.813000000
C     3.838000000    -2.789000000     0.715000000
C     2.849000000    -3.504000000     0.037000000
H     2.886000000    -3.517000000    -1.049000000
C     1.741000000    -4.089000000     0.738000000
O     0.724000000    -4.788000000     0.068000000
C    -0.482000000    -4.118000000    -0.164000000
C    -0.932000000    -4.131000000    -1.593000000
C    -2.207000000    -3.712000000    -1.928000000
H    -2.961000000    -3.419000000    -1.202000000
C     0.044000000    -4.435000000    -2.596000000
H     1.080000000    -4.633000000    -2.334000000
O    -1.511000000    -4.703000000     0.711000000
H    -0.355000000    -3.059000000     0.102000000
C     1.647000000    -4.005000000     2.166000000
C     0.451000000    -4.601000000     2.960000000
H     0.773000000    -4.827000000     3.979000000
H     0.189000000    -5.553000000     2.495000000
C    -0.883000000    -3.802000000     2.902000000
C    -1.219000000    -2.931000000     4.000000000
H    -0.496000000    -2.877000000     4.811000000
C    -1.792000000    -3.895000000     1.824000000
C    -2.929000000    -3.022000000     1.810000000
H    -3.636000000    -3.013000000     0.984000000
C    -3.193000000    -2.149000000     2.922000000
O    -4.229000000    -1.349000000     2.798000000
C    -3.837000000    -0.049000000     2.271000000
C    -4.707000000     0.448000000     1.164000000
C    -5.626000000    -0.434000000     0.526000000
H    -5.715000000    -1.462000000     0.866000000
C    -4.684000000     1.832000000     0.743000000
H    -3.945000000     2.452000000     1.245000000
O    -3.713000000     0.948000000     3.362000000
H    -2.835000000    -0.075000000     1.818000000
C    -2.310000000    -2.088000000     3.995000000
C    -2.425000000    -1.107000000     5.121000000
H    -1.941000000    -1.472000000     6.029000000
H    -3.472000000    -1.125000000     5.432000000
C    -1.848000000     0.263000000     4.787000000
C    -2.502000000     1.239000000     3.978000000
C    -1.904000000     2.384000000     3.606000000
H    -2.452000000     3.115000000     3.018000000
C    -0.538000000     2.632000000     3.828000000
O     0.074000000     3.727000000     3.260000000
C     0.913000000     3.521000000     2.064000000
H     0.611000000     2.637000000     1.483000000
C     0.769000000     4.601000000     0.993000000
C     1.645000000     4.752000000    -0.078000000
H     2.494000000     4.075000000    -0.122000000
C    -0.418000000     5.404000000     0.947000000
H    -1.057000000     5.412000000     1.826000000
C    -0.611000000     6.230000000    -0.100000000
O    -1.869000000     6.767000000    -0.369000000
C     0.294000000     6.478000000    -1.100000000
H     0.074000000     7.280000000    -1.799000000
C     1.425000000     5.700000000    -1.107000000
O     2.226000000     5.966000000    -2.121000000
C     3.429000000     5.423000000    -2.344000000
C     3.592000000     4.244000000    -3.015000000
H     2.772000000     3.640000000    -3.395000000
C     4.513000000     6.150000000    -1.822000000
H     4.492000000     7.149000000    -1.396000000
C     5.798000000     5.668000000    -2.060000000
H     6.713000000     6.169000000    -1.753000000
C     5.977000000     4.423000000    -2.707000000
H     6.989000000     4.063000000    -2.874000000
C     4.911000000     3.722000000    -3.182000000
O     5.127000000     2.587000000    -3.935000000
C     4.892000000     1.298000000    -3.434000000
C     4.971000000     0.264000000    -4.388000000
H     5.184000000     0.465000000    -5.435000000
C     4.676000000    -1.047000000    -4.079000000
O     4.497000000    -1.971000000    -5.073000000
C     3.878000000    -3.220000000    -4.937000000
C     2.528000000    -3.297000000    -4.960000000
H     1.863000000    -2.441000000    -5.039000000
C     4.633000000    -4.401000000    -4.790000000
H     5.717000000    -4.348000000    -4.841000000
C     4.084000000    -5.667000000    -4.783000000
H     4.680000000    -6.576000000    -4.778000000
C     2.648000000    -5.694000000    -4.757000000
H     2.062000000    -6.601000000    -4.640000000
C     1.900000000    -4.500000000    -4.841000000
O     0.552000000    -4.509000000    -4.953000000
C    -0.296000000    -4.306000000    -3.910000000
C    -1.586000000    -3.871000000    -4.192000000
H    -1.853000000    -3.866000000    -5.246000000
C    -2.537000000    -3.592000000    -3.259000000
O    -3.835000000    -3.341000000    -3.623000000
C    -4.962000000    -3.264000000    -2.841000000
C    -5.400000000    -2.074000000    -2.266000000
H    -4.839000000    -1.146000000    -2.337000000
C    -5.789000000    -4.385000000    -2.699000000
H    -5.437000000    -5.327000000    -3.113000000
C    -7.052000000    -4.263000000    -2.155000000
H    -7.811000000    -5.041000000    -2.147000000
C    -7.482000000    -3.052000000    -1.526000000
H    -8.483000000    -2.966000000    -1.110000000
C    -6.654000000    -1.971000000    -1.653000000
O    -7.182000000    -0.757000000    -1.302000000
C    -6.291000000     0.028000000    -0.618000000
C    -6.102000000     1.292000000    -1.142000000
H    -6.598000000     1.605000000    -2.057000000
C    -5.409000000     2.218000000    -0.384000000
O    -5.350000000     3.502000000    -0.805000000
C    -4.755000000     4.465000000    -0.022000000
C    -5.466000000     5.070000000     1.007000000
H    -6.334000000     4.522000000     1.366000000
C    -4.998000000     6.183000000     1.660000000
H    -5.521000000     6.679000000     2.474000000
C    -3.772000000     6.756000000     1.151000000
H    -3.295000000     7.579000000     1.677000000
C    -3.032000000     6.147000000     0.132000000
C    -3.576000000     5.017000000    -0.424000000
H    -3.005000000     4.543000000    -1.219000000
C    -1.868000000     0.296000000    -1.044000000
H    -2.921000000     0.027000000    -1.083000000
C    -1.073000000    -0.214000000     0.010000000
H    -1.533000000    -0.983000000     0.625000000
C     0.238000000     0.225000000     0.162000000
H     0.861000000    -0.268000000     0.886000000
C     0.811000000     1.085000000    -0.716000000
H     1.888000000     1.227000000    -0.679000000
C     0.000000000     1.668000000    -1.723000000
H     0.384000000     2.441000000    -2.384000000
C    -1.368000000     1.321000000    -1.865000000
C    -2.158000000     1.720000000    -3.035000000
O    -1.491000000     1.871000000    -4.057000000
O    -3.378000000     1.701000000    -3.068000000
O    -3.232000000     2.915000000    -9.155000000
H    -3.516000000     3.826000000    -9.225000000
H    -2.920000000     2.829000000    -8.254000000
O    -3.230000000     7.063000000    -4.616000000
H    -3.766000000     7.056000000    -3.823000000
H    -2.806000000     6.204000000    -4.625000000
O    -5.038000000     7.071000000    -2.678000000
H    -5.618000000     6.315000000    -2.581000000
H    -5.343000000     7.693000000    -2.018000000
O    -7.274000000     4.310000000    -3.011000000
H    -6.938000000     3.763000000    -2.301000000
H    -6.666000000     4.164000000    -3.736000000
O    -4.589000000     4.114000000    -3.706000000
H    -4.397000000     3.217000000    -3.432000000
H    -3.752000000     4.572000000    -3.628000000
O    -0.647000000    -0.591000000    -4.944000000
H    -1.045000000    -1.076000000    -4.221000000
H    -0.793000000     0.329000000    -4.723000000
O     0.220000000     5.248000000    -6.137000000
H     0.876000000     4.569000000    -5.975000000
H     0.671000000     5.890000000    -6.686000000
O    -3.033000000     2.696000000    -6.386000000
H    -3.914000000     2.995000000    -6.161000000
H    -2.627000000     2.488000000    -5.544000000
O    -1.746000000     4.741000000    -3.964000000
H    -1.101000000     5.082000000    -4.584000000
H    -1.661000000     3.790000000    -4.028000000
O     0.921000000     0.441000000    -7.135000000
H     0.735000000    -0.134000000    -6.392000000
H     0.270000000     0.199000000    -7.794000000
O    -5.905000000     3.584000000    -6.283000000
H    -5.593000000     3.912000000    -5.439000000
H    -6.246000000     2.711000000    -6.090000000
O    -2.364000000     5.352000000    -7.817000000
H    -2.425000000     6.287000000    -7.624000000
H    -1.598000000     5.055000000    -7.325000000
O    -7.524000000    -0.777000000    -4.915000000
H    -7.814000000    -0.036000000    -5.447000000
H    -7.017000000    -0.379000000    -4.207000000
O    -3.877000000    -0.018000000    -9.181000000
H    -3.859000000     0.922000000    -9.000000000
H    -4.797000000    -0.209000000    -9.366000000
O    -5.337000000     1.069000000    -4.921000000
H    -4.721000000     0.520000000    -5.406000000
H    -4.872000000     1.299000000    -4.117000000
O     1.691000000     7.858000000    -4.893000000
H     2.357000000     7.375000000    -5.382000000
H     1.032000000     7.200000000    -4.671000000
O    -3.734000000    -0.603000000    -6.388000000
H    -3.682000000    -0.312000000    -7.299000000
H    -2.833000000    -0.825000000    -6.155000000
O     0.985000000     2.748000000    -5.050000000
H     0.137000000     2.555000000    -4.652000000
H     1.020000000     2.187000000    -5.825000000
O    -0.952000000    -0.737000000    -8.753000000
H    -1.423000000    -1.548000000    -8.562000000
H    -1.568000000    -0.218000000    -9.270000000
