215
-1432.46863
C     4.475000000    -2.190000000    -2.239000000
H     4.332000000    -3.175000000    -1.801000000
C     4.347000000    -1.055000000    -1.408000000
C     4.269000000     0.261000000    -1.932000000
H     4.126000000     1.079000000    -1.230000000
C     4.042000000    -1.170000000     0.100000000
O     4.072000000    -2.522000000     0.556000000
H     3.005000000    -0.814000000     0.187000000
O     4.873000000    -0.488000000     1.055000000
C     4.146000000     0.151000000     2.083000000
C     3.815000000     1.498000000     1.915000000
H     4.159000000     2.052000000     1.045000000
C     2.949000000     2.127000000     2.768000000
O     2.593000000     3.425000000     2.654000000
C     2.451000000     1.471000000     3.928000000
C     1.606000000     2.082000000     5.024000000
H     1.775000000     1.583000000     5.981000000
C     0.131000000     2.021000000     4.546000000
C    -0.671000000     0.906000000     4.929000000
H    -0.219000000     0.250000000     5.668000000
H     1.929000000     3.120000000     5.131000000
C     2.725000000     0.077000000     4.030000000
H     2.351000000    -0.466000000     4.894000000
C     3.571000000    -0.542000000     3.120000000
C     3.928000000    -1.969000000     3.318000000
H     3.949000000    -2.297000000     4.360000000
H     4.940000000    -2.226000000     3.000000000
C     2.853000000    -2.839000000     2.637000000
C     1.742000000    -3.470000000     3.263000000
H     1.638000000    -3.254000000     4.324000000
C     3.069000000    -3.133000000     1.270000000
C     2.267000000    -4.062000000     0.528000000
H     2.443000000    -4.192000000    -0.537000000
C     1.154000000    -4.523000000     1.244000000
O     0.112000000    -5.050000000     0.474000000
C    -0.907000000    -4.067000000     0.059000000
C    -1.218000000    -4.235000000    -1.386000000
C    -2.298000000    -3.613000000    -1.986000000
H    -2.906000000    -3.046000000    -1.285000000
C    -0.379000000    -4.828000000    -2.306000000
H     0.599000000    -5.119000000    -1.932000000
O    -2.110000000    -4.329000000     0.770000000
H    -0.414000000    -3.091000000     0.184000000
C     0.819000000    -4.173000000     2.584000000
C    -0.493000000    -4.533000000     3.196000000
H    -0.258000000    -4.555000000     4.262000000
H    -0.838000000    -5.522000000     2.887000000
C    -1.605000000    -3.549000000     3.042000000
C    -1.798000000    -2.512000000     4.045000000
H    -1.037000000    -2.447000000     4.818000000
C    -2.366000000    -3.463000000     1.864000000
C    -3.436000000    -2.536000000     1.704000000
H    -3.885000000    -2.444000000     0.718000000
C    -3.618000000    -1.650000000     2.765000000
O    -4.464000000    -0.679000000     2.419000000
C    -3.896000000     0.561000000     1.983000000
C    -4.628000000     1.149000000     0.762000000
C    -5.383000000     0.322000000    -0.042000000
H    -5.472000000    -0.733000000     0.204000000
C    -4.424000000     2.445000000     0.411000000
H    -3.710000000     3.027000000     0.989000000
O    -3.748000000     1.579000000     2.991000000
H    -2.902000000     0.268000000     1.615000000
C    -2.847000000    -1.652000000     3.903000000
C    -2.817000000    -0.507000000     4.879000000
H    -2.508000000    -0.799000000     5.885000000
H    -3.900000000    -0.387000000     4.952000000
C    -1.975000000     0.704000000     4.393000000
C    -2.488000000     1.686000000     3.548000000
C    -1.631000000     2.706000000     3.125000000
H    -2.086000000     3.394000000     2.417000000
C    -0.378000000     2.912000000     3.607000000
O     0.319000000     3.975000000     2.995000000
C     1.321000000     3.618000000     1.989000000
H     0.995000000     2.651000000     1.577000000
C     1.310000000     4.682000000     0.839000000
C     2.443000000     4.850000000     0.061000000
H     3.340000000     4.324000000     0.377000000
C     0.134000000     5.453000000     0.615000000
H    -0.705000000     5.454000000     1.306000000
C     0.127000000     6.389000000    -0.401000000
O    -1.035000000     7.098000000    -0.585000000
C     1.286000000     6.627000000    -1.102000000
H     1.263000000     7.483000000    -1.772000000
C     2.357000000     5.724000000    -1.015000000
O     3.497000000     6.056000000    -1.679000000
C     4.379000000     5.018000000    -2.077000000
C     3.887000000     3.790000000    -2.578000000
H     2.832000000     3.636000000    -2.793000000
C     5.754000000     5.333000000    -2.007000000
H     5.885000000     6.286000000    -1.502000000
C     6.700000000     4.404000000    -2.528000000
H     7.780000000     4.522000000    -2.558000000
C     6.204000000     3.292000000    -3.141000000
H     6.896000000     2.669000000    -3.703000000
C     4.856000000     2.920000000    -3.125000000
O     4.325000000     1.795000000    -3.749000000
C     4.419000000     0.470000000    -3.268000000
C     4.540000000    -0.625000000    -4.103000000
H     4.449000000    -0.552000000    -5.183000000
C     4.492000000    -1.966000000    -3.596000000
O     4.301000000    -2.968000000    -4.561000000
C     3.736000000    -4.154000000    -4.342000000
C     2.336000000    -4.174000000    -4.423000000
H     1.792000000    -3.282000000    -4.722000000
C     4.510000000    -5.278000000    -4.289000000
H     5.583000000    -5.340000000    -4.451000000
C     3.869000000    -6.465000000    -4.133000000
H     4.510000000    -7.343000000    -4.116000000
C     2.458000000    -6.499000000    -4.106000000
H     2.006000000    -7.464000000    -3.889000000
C     1.702000000    -5.357000000    -4.247000000
O     0.356000000    -5.423000000    -4.566000000
C    -0.589000000    -4.929000000    -3.651000000
C    -1.701000000    -4.360000000    -4.224000000
H    -1.882000000    -4.294000000    -5.294000000
C    -2.560000000    -3.603000000    -3.378000000
O    -3.602000000    -2.882000000    -4.001000000
C    -4.805000000    -2.682000000    -3.266000000
C    -5.315000000    -1.457000000    -2.947000000
H    -4.637000000    -0.617000000    -3.077000000
C    -5.539000000    -3.723000000    -2.889000000
H    -5.255000000    -4.743000000    -3.135000000
C    -6.790000000    -3.637000000    -2.189000000
H    -7.429000000    -4.501000000    -2.031000000
C    -7.252000000    -2.334000000    -1.916000000
H    -8.215000000    -2.183000000    -1.435000000
C    -6.487000000    -1.210000000    -2.275000000
O    -6.790000000     0.071000000    -1.917000000
C    -5.951000000     0.889000000    -1.214000000
C    -5.761000000     2.171000000    -1.639000000
H    -6.152000000     2.467000000    -2.609000000
C    -4.993000000     2.952000000    -0.781000000
O    -4.658000000     4.198000000    -1.255000000
C    -4.052000000     5.166000000    -0.525000000
C    -4.771000000     5.777000000     0.456000000
H    -5.804000000     5.489000000     0.631000000
C    -4.226000000     6.919000000     1.121000000
H    -4.833000000     7.533000000     1.781000000
C    -2.951000000     7.382000000     0.745000000
H    -2.541000000     8.273000000     1.213000000
C    -2.210000000     6.671000000    -0.234000000
C    -2.782000000     5.515000000    -0.810000000
H    -2.268000000     5.058000000    -1.652000000
C    -2.000000000     0.418000000    -1.395000000
H    -2.985000000     0.166000000    -1.781000000
C    -1.560000000    -0.461000000    -0.454000000
H    -2.087000000    -1.386000000    -0.233000000
C    -0.272000000    -0.256000000     0.123000000
H    -0.013000000    -0.877000000     0.960000000
C     0.569000000     0.756000000    -0.335000000
H     1.567000000     0.921000000     0.065000000
C     0.053000000     1.564000000    -1.366000000
H     0.679000000     2.312000000    -1.845000000
C    -1.231000000     1.517000000    -1.822000000
C    -1.677000000     2.401000000    -2.923000000
O    -0.898000000     2.875000000    -3.712000000
O    -2.842000000     2.622000000    -3.060000000
O    -2.473000000     4.472000000    -8.807000000
H    -2.617000000     3.573000000    -9.103000000
H    -2.807000000     4.485000000    -7.910000000
O    -5.091000000     2.813000000    -7.307000000
H    -4.514000000     3.510000000    -6.996000000
H    -4.498000000     2.101000000    -7.548000000
O    -1.773000000     7.330000000    -5.057000000
H    -1.121000000     6.810000000    -4.587000000
H    -2.520000000     7.372000000    -4.460000000
O    -3.728000000     7.673000000    -3.151000000
H    -3.370000000     7.642000000    -2.264000000
H    -4.327000000     8.420000000    -3.141000000
O    -6.345000000     4.577000000    -5.382000000
H    -5.678000000     4.610000000    -4.695000000
H    -6.097000000     3.826000000    -5.920000000
O    -4.053000000     4.837000000    -3.930000000
H    -4.183000000     5.415000000    -3.178000000
H    -3.763000000     4.009000000    -3.548000000
O    -1.111000000    -0.979000000    -5.214000000
H    -1.911000000    -1.499000000    -5.135000000
H    -1.282000000    -0.195000000    -4.692000000
O    -2.275000000     2.233000000    -6.078000000
H    -1.526000000     2.725000000    -6.416000000
H    -2.184000000     2.281000000    -5.127000000
O    -0.281000000     5.365000000    -3.845000000
H     0.414000000     5.394000000    -3.188000000
H    -0.474000000     4.433000000    -3.949000000
O     2.212000000    -1.282000000    -6.852000000
H     1.463000000    -1.189000000    -6.263000000
H     1.877000000    -1.020000000    -7.710000000
O    -6.596000000    -0.323000000    -5.876000000
H    -6.029000000     0.105000000    -5.235000000
H    -5.991000000    -0.756000000    -6.479000000
O    -0.002000000     3.259000000    -7.379000000
H     0.139000000     4.185000000    -7.182000000
H     0.448000000     2.793000000    -6.675000000
O    -4.511000000     1.342000000    -4.717000000
H    -3.786000000     1.545000000    -5.309000000
H    -4.179000000     1.565000000    -3.847000000
O     0.342000000     5.993000000    -6.658000000
H    -0.238000000     5.856000000    -5.909000000
H     1.223000000     5.873000000    -6.304000000
O    -3.686000000     5.120000000    -6.519000000
H    -3.603000000     6.011000000    -6.858000000
H    -3.703000000     5.227000000    -5.568000000
O    -3.425000000     0.480000000    -7.681000000
H    -2.880000000     0.942000000    -7.044000000
H    -3.832000000    -0.228000000    -7.180000000
O     1.161000000     1.829000000    -5.056000000
H     0.422000000     2.191000000    -4.568000000
H     1.070000000     0.881000000    -4.962000000
O     3.621000000     2.520000000    -6.442000000
H     2.893000000     1.901000000    -6.401000000
H     4.145000000     2.326000000    -5.664000000
O    -1.744000000    -2.808000000    -7.414000000
H    -1.353000000    -2.064000000    -6.956000000
H    -1.142000000    -2.987000000    -8.137000000
