215
-1461.40899
C    -3.099000000     0.647000000    -4.612000000
H    -3.076000000    -0.389000000    -4.285000000
C    -1.864000000     1.342000000    -4.728000000
C    -1.906000000     2.736000000    -4.804000000
H    -1.024000000     3.371000000    -4.803000000
C    -0.556000000     0.505000000    -4.575000000
O    -0.698000000    -0.865000000    -4.999000000
H    -0.318000000     0.494000000    -3.501000000
O     0.620000000     1.078000000    -5.271000000
C     1.746000000     1.187000000    -4.564000000
C     1.964000000     2.297000000    -3.769000000
H     1.265000000     3.128000000    -3.717000000
C     2.859000000     2.278000000    -2.729000000
O     2.732000000     3.274000000    -1.829000000
C     3.847000000     1.249000000    -2.643000000
C     5.033000000     1.256000000    -1.729000000
H     5.799000000     0.538000000    -2.030000000
C     4.757000000     0.754000000    -0.346000000
C     4.986000000    -0.583000000     0.012000000
H     5.356000000    -1.211000000    -0.795000000
H     5.434000000     2.271000000    -1.729000000
C     3.671000000     0.185000000    -3.557000000
H     4.399000000    -0.622000000    -3.537000000
C     2.550000000     0.071000000    -4.388000000
C     2.314000000    -1.182000000    -5.133000000
H     3.231000000    -1.761000000    -5.258000000
H     2.032000000    -1.091000000    -6.185000000
C     1.295000000    -2.051000000    -4.361000000
C     1.848000000    -2.995000000    -3.528000000
H     2.920000000    -3.179000000    -3.516000000
C    -0.088000000    -1.959000000    -4.401000000
C    -0.895000000    -2.758000000    -3.676000000
H    -1.979000000    -2.720000000    -3.752000000
C    -0.368000000    -3.712000000    -2.801000000
O    -1.180000000    -4.352000000    -1.865000000
C    -1.129000000    -3.824000000    -0.549000000
C    -2.517000000    -3.734000000     0.024000000
C    -2.731000000    -3.991000000     1.351000000
H    -1.954000000    -4.232000000     2.073000000
C    -3.582000000    -3.110000000    -0.683000000
H    -3.418000000    -2.614000000    -1.636000000
O    -0.356000000    -4.653000000     0.286000000
H    -0.747000000    -2.797000000    -0.461000000
C     1.031000000    -3.807000000    -2.693000000
C     1.687000000    -4.833000000    -1.756000000
H     2.707000000    -5.042000000    -2.086000000
H     1.101000000    -5.747000000    -1.871000000
C     1.951000000    -4.293000000    -0.341000000
C     3.220000000    -3.800000000    -0.026000000
H     4.027000000    -3.790000000    -0.754000000
C     0.928000000    -4.247000000     0.614000000
C     1.182000000    -3.816000000     1.911000000
H     0.365000000    -3.754000000     2.626000000
C     2.449000000    -3.331000000     2.236000000
O     2.632000000    -2.792000000     3.477000000
C     2.481000000    -1.387000000     3.487000000
C     1.794000000    -1.003000000     4.726000000
C     0.617000000    -1.668000000     5.017000000
H     0.341000000    -2.462000000     4.329000000
C     2.174000000     0.085000000     5.499000000
H     2.983000000     0.722000000     5.151000000
O     3.785000000    -0.817000000     3.476000000
H     1.954000000    -0.999000000     2.603000000
C     3.487000000    -3.342000000     1.264000000
C     4.796000000    -2.625000000     1.485000000
H     5.491000000    -3.063000000     0.766000000
H     5.081000000    -2.915000000     2.498000000
C     4.678000000    -1.119000000     1.240000000
C     4.132000000    -0.318000000     2.235000000
C     3.899000000     1.043000000     1.950000000
H     3.610000000     1.733000000     2.739000000
C     4.208000000     1.567000000     0.709000000
O     3.897000000     2.868000000     0.341000000
C     2.598000000     2.971000000    -0.375000000
H     2.088000000     1.996000000    -0.380000000
C     1.694000000     3.959000000     0.276000000
C     0.621000000     4.543000000    -0.474000000
H     0.594000000     4.275000000    -1.528000000
C     1.703000000     4.231000000     1.664000000
H     2.503000000     3.788000000     2.252000000
C     0.665000000     4.960000000     2.277000000
O     0.629000000     4.972000000     3.614000000
C    -0.441000000     5.381000000     1.515000000
H    -1.218000000     5.979000000     1.983000000
C    -0.416000000     5.277000000     0.103000000
O    -1.485000000     5.651000000    -0.641000000
C    -1.434000000     5.921000000    -2.009000000
C    -2.261000000     5.173000000    -2.861000000
H    -2.941000000     4.447000000    -2.421000000
C    -0.617000000     6.905000000    -2.605000000
H    -0.186000000     7.677000000    -1.975000000
C    -0.640000000     7.197000000    -3.960000000
H     0.036000000     7.934000000    -4.385000000
C    -1.591000000     6.466000000    -4.755000000
H    -1.736000000     6.682000000    -5.810000000
C    -2.378000000     5.481000000    -4.225000000
O    -3.216000000     4.757000000    -5.011000000
C    -3.171000000     3.395000000    -4.904000000
C    -4.395000000     2.697000000    -4.824000000
H    -5.328000000     3.256000000    -4.805000000
C    -4.338000000     1.285000000    -4.713000000
O    -5.501000000     0.561000000    -4.713000000
C    -5.759000000    -0.593000000    -3.969000000
C    -5.515000000    -0.826000000    -2.624000000
H    -5.209000000    -0.007000000    -1.978000000
C    -6.319000000    -1.619000000    -4.804000000
H    -6.519000000    -1.315000000    -5.828000000
C    -6.568000000    -2.870000000    -4.244000000
H    -7.072000000    -3.664000000    -4.787000000
C    -6.323000000    -3.054000000    -2.885000000
H    -6.641000000    -4.009000000    -2.474000000
C    -5.936000000    -1.986000000    -2.056000000
O    -5.858000000    -2.163000000    -0.697000000
C    -4.828000000    -2.895000000    -0.110000000
C    -5.043000000    -3.301000000     1.202000000
H    -5.942000000    -3.020000000     1.744000000
C    -3.945000000    -3.764000000     1.965000000
O    -4.068000000    -3.927000000     3.323000000
C    -3.064000000    -4.080000000     4.230000000
C    -2.489000000    -2.968000000     4.804000000
H    -2.609000000    -1.971000000     4.387000000
C    -2.975000000    -5.348000000     4.797000000
H    -3.493000000    -6.223000000     4.412000000
C    -2.115000000    -5.523000000     5.864000000
H    -2.051000000    -6.506000000     6.324000000
C    -1.471000000    -4.414000000     6.458000000
H    -0.851000000    -4.512000000     7.346000000
C    -1.747000000    -3.087000000     5.914000000
O    -1.279000000    -1.987000000     6.584000000
C    -0.097000000    -1.376000000     6.197000000
C     0.283000000    -0.247000000     6.877000000
H    -0.216000000     0.071000000     7.789000000
C     1.339000000     0.516000000     6.506000000
O     1.486000000     1.684000000     7.116000000
C     1.795000000     2.846000000     6.411000000
C     2.846000000     3.644000000     6.880000000
H     3.318000000     3.330000000     7.807000000
C     3.160000000     4.825000000     6.213000000
H     4.019000000     5.401000000     6.548000000
C     2.519000000     5.215000000     5.065000000
H     2.813000000     6.185000000     4.672000000
C     1.526000000     4.404000000     4.556000000
C     1.065000000     3.251000000     5.264000000
H     0.158000000     2.723000000     4.982000000
C    -2.038000000    -0.284000000     1.639000000
H    -2.415000000    -0.749000000     2.546000000
C    -0.738000000    -0.659000000     1.140000000
H    -0.104000000    -1.305000000     1.742000000
C    -0.200000000    -0.021000000     0.005000000
H     0.866000000    -0.290000000    -0.318000000
C    -1.008000000     0.843000000    -0.743000000
H    -0.677000000     1.414000000    -1.608000000
C    -2.260000000     1.263000000    -0.197000000
H    -2.764000000     2.064000000    -0.731000000
C    -2.781000000     0.697000000     0.976000000
C    -4.216000000     1.009000000     1.501000000
O    -5.058000000     1.485000000     0.777000000
O    -4.417000000     0.884000000     2.670000000
O    -9.171000000    -1.105000000     0.200000000
H    -8.842000000    -1.281000000     1.081000000
H    -8.742000000    -1.759000000    -0.351000000
O    -6.643000000    -0.713000000     2.061000000
H    -6.536000000    -0.679000000     1.111000000
H    -5.913000000    -0.199000000     2.404000000
O    -8.604000000    -0.493000000     4.763000000
H    -8.307000000     0.156000000     4.125000000
H    -7.916000000    -1.158000000     4.765000000
O    -7.389000000     2.167000000     6.390000000
H    -8.053000000     2.854000000     6.456000000
H    -7.151000000     2.154000000     5.463000000
O    -7.270000000     3.170000000    -2.115000000
H    -7.967000000     2.905000000    -1.514000000
H    -7.511000000     2.772000000    -2.951000000
O    -3.402000000     7.357000000     3.443000000
H    -3.677000000     7.128000000     2.556000000
H    -2.800000000     8.092000000     3.325000000
O    -9.855000000     1.424000000    -0.978000000
H   -10.159000000     0.779000000    -0.339000000
H   -10.186000000     1.104000000    -1.817000000
O    -6.402000000    -2.031000000     4.316000000
H    -5.595000000    -1.633000000     4.643000000
H    -6.561000000    -1.597000000     3.478000000
O    -4.884000000     4.155000000     2.304000000
H    -4.369000000     4.500000000     1.574000000
H    -4.667000000     3.223000000     2.330000000
O    -7.277000000     5.033000000     1.137000000
H    -6.444000000     4.590000000     1.301000000
H    -7.893000000     4.324000000     0.953000000
O    -4.411000000    -0.347000000     5.110000000
H    -4.068000000     0.413000000     5.579000000
H    -4.455000000    -0.066000000     4.197000000
O    -7.741000000     2.290000000     0.869000000
H    -6.849000000     1.943000000     0.834000000
H    -8.274000000     1.623000000     0.435000000
O    -5.337000000     6.219000000    -2.464000000
H    -5.072000000     5.451000000    -1.958000000
H    -6.293000000     6.179000000    -2.477000000
O    -3.178000000     4.108000000     4.826000000
H    -2.691000000     4.932000000     4.850000000
H    -3.841000000     4.241000000     4.149000000
O    -3.365000000     1.914000000     6.383000000
H    -3.294000000     2.612000000     5.733000000
H    -2.554000000     1.973000000     6.888000000
O    -4.984000000     3.718000000    -0.785000000
H    -4.880000000     3.004000000    -0.156000000
H    -5.818000000     3.537000000    -1.218000000
O    -3.934000000     6.532000000     0.750000000
H    -3.506000000     6.990000000     0.027000000
H    -4.864000000     6.544000000     0.525000000
O    -6.815000000     2.331000000     3.625000000
H    -6.295000000     3.117000000     3.457000000
H    -7.242000000     2.143000000     2.790000000
O   -10.197000000     4.401000000    -0.033000000
H   -10.182000000     4.557000000     0.911000000
H    -9.760000000     3.557000000    -0.144000000
