215
-1452.69573
C     4.026000000    -1.772000000    -2.204000000
H     4.256000000    -2.780000000    -1.869000000
C     3.964000000    -0.689000000    -1.330000000
C     3.757000000     0.657000000    -1.815000000
H     3.683000000     1.495000000    -1.126000000
C     3.894000000    -0.973000000     0.140000000
O     4.138000000    -2.356000000     0.509000000
H     2.868000000    -0.768000000     0.479000000
O     4.781000000     0.002000000     0.859000000
C     4.245000000     0.606000000     2.003000000
C     3.930000000     1.973000000     2.024000000
H     4.275000000     2.567000000     1.181000000
C     3.135000000     2.517000000     2.987000000
O     2.700000000     3.814000000     2.827000000
C     2.709000000     1.720000000     4.112000000
C     1.636000000     2.213000000     5.116000000
H     1.838000000     1.556000000     5.965000000
C     0.180000000     2.086000000     4.548000000
C    -0.669000000     1.016000000     4.998000000
H    -0.254000000     0.282000000     5.685000000
H     1.815000000     3.240000000     5.443000000
C     3.073000000     0.320000000     4.141000000
H     2.785000000    -0.413000000     4.889000000
C     3.780000000    -0.228000000     3.105000000
C     4.112000000    -1.744000000     3.125000000
H     4.306000000    -2.073000000     4.148000000
H     5.123000000    -1.966000000     2.776000000
C     3.079000000    -2.641000000     2.522000000
C     2.056000000    -3.252000000     3.233000000
H     1.902000000    -3.054000000     4.290000000
C     3.192000000    -2.932000000     1.203000000
C     2.381000000    -3.888000000     0.529000000
H     2.611000000    -4.127000000    -0.506000000
C     1.310000000    -4.401000000     1.187000000
O     0.386000000    -5.103000000     0.533000000
C    -0.805000000    -4.402000000     0.063000000
C    -1.132000000    -4.560000000    -1.380000000
C    -2.294000000    -4.096000000    -1.942000000
H    -3.077000000    -3.774000000    -1.262000000
C    -0.151000000    -5.024000000    -2.245000000
H     0.767000000    -5.470000000    -1.870000000
O    -1.905000000    -4.636000000     0.913000000
H    -0.584000000    -3.341000000     0.252000000
C     1.115000000    -4.060000000     2.549000000
C    -0.069000000    -4.698000000     3.300000000
H     0.241000000    -4.833000000     4.339000000
H    -0.337000000    -5.667000000     2.874000000
C    -1.333000000    -3.769000000     3.178000000
C    -1.485000000    -2.680000000     4.057000000
H    -0.814000000    -2.609000000     4.909000000
C    -2.116000000    -3.781000000     2.009000000
C    -3.193000000    -2.839000000     1.874000000
H    -3.862000000    -2.889000000     1.018000000
C    -3.344000000    -1.801000000     2.705000000
O    -4.178000000    -0.832000000     2.341000000
C    -3.642000000     0.472000000     1.902000000
C    -4.415000000     0.867000000     0.552000000
C    -5.330000000     0.072000000    -0.075000000
H    -5.593000000    -0.905000000     0.321000000
C    -4.049000000     2.127000000     0.051000000
H    -3.343000000     2.820000000     0.502000000
O    -3.626000000     1.447000000     2.931000000
H    -2.612000000     0.193000000     1.635000000
C    -2.500000000    -1.735000000     3.810000000
C    -2.658000000    -0.615000000     4.853000000
H    -2.088000000    -0.969000000     5.715000000
H    -3.697000000    -0.454000000     5.149000000
C    -1.906000000     0.715000000     4.388000000
C    -2.348000000     1.668000000     3.511000000
C    -1.623000000     2.795000000     3.158000000
H    -2.183000000     3.397000000     2.446000000
C    -0.274000000     3.054000000     3.624000000
O     0.495000000     4.138000000     3.369000000
C     1.403000000     3.927000000     2.284000000
H     1.136000000     3.071000000     1.646000000
C     1.315000000     5.116000000     1.286000000
C     2.365000000     5.475000000     0.409000000
H     3.242000000     4.902000000     0.699000000
C     0.077000000     5.754000000     0.965000000
H    -0.842000000     5.627000000     1.531000000
C     0.022000000     6.721000000    -0.073000000
O    -1.191000000     7.294000000    -0.285000000
C     1.074000000     6.926000000    -0.914000000
H     0.976000000     7.653000000    -1.716000000
C     2.266000000     6.351000000    -0.675000000
O     3.345000000     6.508000000    -1.548000000
C     4.004000000     5.442000000    -2.114000000
C     3.298000000     4.365000000    -2.699000000
H     2.212000000     4.402000000    -2.713000000
C     5.409000000     5.486000000    -2.213000000
H     5.857000000     6.418000000    -1.877000000
C     6.156000000     4.358000000    -2.523000000
H     7.239000000     4.337000000    -2.436000000
C     5.405000000     3.269000000    -3.006000000
H     5.947000000     2.420000000    -3.415000000
C     4.024000000     3.237000000    -3.079000000
O     3.411000000     2.162000000    -3.689000000
C     3.570000000     0.909000000    -3.169000000
C     3.588000000    -0.189000000    -4.056000000
H     3.561000000     0.080000000    -5.109000000
C     3.882000000    -1.492000000    -3.577000000
O     4.229000000    -2.462000000    -4.490000000
C     3.732000000    -3.780000000    -4.426000000
C     2.388000000    -3.983000000    -4.358000000
H     1.684000000    -3.159000000    -4.274000000
C     4.618000000    -4.868000000    -4.648000000
H     5.646000000    -4.538000000    -4.777000000
C     4.179000000    -6.199000000    -4.671000000
H     4.818000000    -7.077000000    -4.717000000
C     2.807000000    -6.434000000    -4.426000000
H     2.314000000    -7.402000000    -4.384000000
C     1.944000000    -5.298000000    -4.292000000
O     0.596000000    -5.640000000    -4.443000000
C    -0.401000000    -5.083000000    -3.620000000
C    -1.621000000    -4.650000000    -4.185000000
H    -1.869000000    -4.754000000    -5.238000000
C    -2.559000000    -4.086000000    -3.294000000
O    -3.731000000    -3.573000000    -3.842000000
C    -4.849000000    -3.278000000    -3.073000000
C    -5.122000000    -1.881000000    -2.847000000
H    -4.448000000    -1.117000000    -3.225000000
C    -5.668000000    -4.291000000    -2.616000000
H    -5.308000000    -5.307000000    -2.758000000
C    -6.998000000    -4.011000000    -2.231000000
H    -7.751000000    -4.783000000    -2.096000000
C    -7.253000000    -2.643000000    -1.978000000
H    -8.187000000    -2.369000000    -1.494000000
C    -6.347000000    -1.620000000    -2.255000000
O    -6.764000000    -0.316000000    -1.981000000
C    -5.900000000     0.524000000    -1.281000000
C    -5.512000000     1.765000000    -1.882000000
H    -5.932000000     2.012000000    -2.853000000
C    -4.588000000     2.533000000    -1.186000000
O    -4.152000000     3.722000000    -1.697000000
C    -3.839000000     4.758000000    -0.944000000
C    -4.846000000     5.271000000    -0.083000000
H    -5.815000000     4.779000000    -0.092000000
C    -4.565000000     6.289000000     0.801000000
H    -5.369000000     6.622000000     1.452000000
C    -3.350000000     6.916000000     0.763000000
H    -3.191000000     7.773000000     1.413000000
C    -2.381000000     6.563000000    -0.181000000
C    -2.572000000     5.376000000    -0.987000000
H    -1.875000000     4.961000000    -1.710000000
C    -1.347000000     0.202000000    -1.671000000
H    -2.144000000     0.028000000    -2.390000000
C    -1.203000000    -0.627000000    -0.581000000
H    -1.651000000    -1.617000000    -0.595000000
C    -0.282000000    -0.417000000     0.419000000
H    -0.197000000    -1.124000000     1.249000000
C     0.480000000     0.730000000     0.372000000
H     1.201000000     0.912000000     1.165000000
C     0.347000000     1.597000000    -0.677000000
H     0.894000000     2.536000000    -0.687000000
C    -0.567000000     1.366000000    -1.752000000
C    -0.706000000     2.453000000    -2.834000000
O    -0.138000000     3.503000000    -2.718000000
O    -1.467000000     2.280000000    -3.821000000
O    -0.893000000     4.328000000    -8.168000000
H    -0.729000000     3.414000000    -8.402000000
H    -0.119000000     4.589000000    -7.669000000
O    -2.309000000     7.620000000    -4.118000000
H    -3.113000000     7.105000000    -4.053000000
H    -2.271000000     8.109000000    -3.296000000
O    -6.089000000     4.994000000    -4.051000000
H    -5.152000000     4.799000000    -4.020000000
H    -6.481000000     4.222000000    -4.459000000
O    -3.025000000     4.466000000    -4.492000000
H    -2.580000000     5.160000000    -4.006000000
H    -2.845000000     3.670000000    -3.991000000
O     0.302000000    -0.940000000    -5.969000000
H    -0.550000000    -0.792000000    -5.560000000
H     0.667000000    -0.062000000    -6.088000000
O     3.977000000     4.596000000    -6.462000000
H     4.568000000     3.852000000    -6.578000000
H     4.541000000     5.302000000    -6.145000000
O    -1.157000000     1.241000000    -8.443000000
H    -0.831000000     0.578000000    -9.050000000
H    -1.660000000     0.747000000    -7.795000000
O     0.403000000     5.632000000    -3.969000000
H     0.496000000     6.032000000    -3.104000000
H     0.138000000     4.730000000    -3.789000000
O     0.224000000     8.499000000    -5.299000000
H    -0.523000000     8.080000000    -4.871000000
H    -0.043000000     8.585000000    -6.214000000
O     0.753000000    -1.722000000    -8.714000000
H     0.581000000    -1.494000000    -7.800000000
H     0.800000000    -2.679000000    -8.716000000
O    -6.206000000     0.354000000    -5.613000000
H    -6.326000000    -0.150000000    -4.808000000
H    -5.650000000    -0.199000000    -6.162000000
O     1.361000000     2.914000000    -8.467000000
H     1.790000000     3.382000000    -7.751000000
H     0.976000000     2.143000000    -8.052000000
O    -6.826000000     3.113000000    -5.860000000
H    -6.302000000     2.332000000    -5.683000000
H    -6.636000000     3.328000000    -6.773000000
O    -2.041000000    -0.054000000    -4.998000000
H    -1.706000000     0.701000000    -4.514000000
H    -2.965000000     0.149000000    -5.147000000
O     1.271000000     4.802000000    -6.332000000
H     1.005000000     5.097000000    -5.462000000
H     2.224000000     4.893000000    -6.335000000
O    -3.336000000     4.458000000    -7.170000000
H    -3.235000000     4.140000000    -6.273000000
H    -2.440000000     4.545000000    -7.496000000
O    -4.149000000     7.205000000    -7.413000000
H    -3.689000000     7.636000000    -8.133000000
H    -3.574000000     6.483000000    -7.160000000
O     0.836000000     1.871000000    -5.697000000
H     0.135000000     2.446000000    -5.391000000
H     1.564000000     2.042000000    -5.100000000
O    -2.459000000    -2.612000000    -6.983000000
H    -1.704000000    -2.336000000    -6.463000000
H    -2.084000000    -3.133000000    -7.693000000
